/*---------------------------------------------------------------------------*\
| =========                 |                                                 |
| \\      /  F ield         | OpenFOAM: The Open Source CFD Toolbox           |
|  \\    /   O peration     | Version:  2.1.x                                 |
|   \\  /    A nd           | Web:      www.OpenFOAM.org                      |
|    \\/     M anipulation  |                                                 |
\*---------------------------------------------------------------------------*/
Build  : 2.1.x-0cda3c01b8ed
Exec   : pyroFoam -parallel
Date   : Mar 04 2013
Time   : 19:53:30
Host   : "simon.localdomain"
PID    : 11002
Case   : /home/bryce.whitson/OpenFOAM/bryce.whitson-2.1.x/applications/pyroFoam/testCases/heatTransfer/testHT2
nProcs : 4
Slaves : 
3
(
"simon.localdomain.11003"
"simon.localdomain.11004"
"simon.localdomain.11005"
)

Pstream initialized with:
    floatTransfer     : 0
    nProcsSimpleSum   : 0
    commsType         : nonBlocking
sigFpe : Enabling floating point exception trapping (FOAM_SIGFPE).
fileModificationChecking : Monitoring run-time modified files using timeStampMaster
allowSystemOperations : Allowing user-supplied system call operations

// * * * * * * * * * * * * * * * * * * * * * * * * * * * * * * * * * * * * * //
Create time

Create mesh for time = 0.062

Selecting dynamicFvMesh staticFvMesh

Reading g
Creating combustion model

Selecting combustion model PaSR<psiChemistryCombustionModel>
Selecting psiChemistryModel ODEChemistryModel<gasThermoPhysics>
Selecting thermodynamics package hsPsiMixtureThermo<reactingMixture<gasThermoPhysics>>
Selecting chemistryReader foamChemistryReader
ODEChemistryModel: Number of species = 3 and reactions = 0
Selecting ODE solver SIBS
Reading field U

Reading/calculating face flux field phi

Creating turbulence model.

Selecting turbulence model type laminar
Creating field dpdt

Creating field kinetic energy K

Created immersed boundary
Constructed constSolidThermo with
    rho        : rho [1 -3 0 0 0 0 0] 90
    Cp         : Cp [0 2 -2 -1 0 0 0] 45
    K          : K [1 1 -3 -1 0 0 0] 500
    Hf         : Hf [0 2 -2 0 0 0 0] 0
    emissivity : emissivity [0 0 0 0 0 0 0] 0
    kappa      : kappa [0 -1 0 0 0 0 0] 0
    sigmaS     : sigmaS [0 -1 0 0 0 0 0] 0

Selecting pyrolysis model NoPyrolysis
Created burningSolid
  Linked burningSolid with gas specie
Courant Number mean: 0.23615844 max: 0.49382787

PIMPLE: Operating solver in PISO mode


Starting time loop

Courant Number mean: 0.23615844 max: 0.49382787
deltaT = 1.3888889e-05
Time = 0.0620139

Correcting burningSolid
diagonal:  Solving for alphaGas, Initial residual = 0, Final residual = 0, No Iterations 0
Min/Max Gas Transfer Weights: 0, 1.2306477e-06
Min/Max Solid Transfer Weights: 0, 5.8631842e-07
Solving UEqn
Min,max U = 0, 18.399983
DILUPBiCG:  Solving for N2, Initial residual = 0, Final residual = 0, No Iterations 0
DILUPBiCG:  Solving for EMg, Initial residual = 0.00090626581, Final residual = 1.7530713e-07, No Iterations 2
Min,max for N2 = 0, 0
Min,max for EMs = 0, 1
Min,max for EMg = 0, 1
DILUPBiCG:  Solving for hs, Initial residual = 0.0033885294, Final residual = 4.7070131e-09, No Iterations 3
T gas min/max   = 299.05762, 300.26752
DICPCG:  Solving for Ts, Initial residual = 1.3676286e-05, Final residual = 9.1021908e-10, No Iterations 10
T solid min/max   = 300.02847, 300.03044
Solving pEqn
Min,max Uest = 0, 18.412042
GAMG:  Solving for p, Initial residual = 0.010963187, Final residual = 0.00020294384, No Iterations 2
Min,max p = 100000, 102261.68
time step continuity errors : sum local = 1.1518295e-05, global = 9.7622257e-06, cumulative = 9.7622257e-06
Min,max U = 0, 18.411038
Solving pEqn
Min,max Uest = 0, 18.412339
GAMGPCG:  Solving for p, Initial residual = 0.00090955743, Final residual = 1.0868526e-09, No Iterations 5
Min,max p = 100000, 102261.68
time step continuity errors : sum local = 3.799081e-07, global = 6.3794959e-08, cumulative = 9.8260207e-06
Min,max U = 0, 18.411585
ExecutionTime = 1.33 s  ClockTime = 3 s

Courant Number mean: 0.23609173 max: 0.49404532
deltaT = 1.3888889e-05
Time = 0.0620278

Correcting burningSolid
diagonal:  Solving for alphaGas, Initial residual = 0, Final residual = 0, No Iterations 0
Min/Max Gas Transfer Weights: 0, 1.2306477e-06
Min/Max Solid Transfer Weights: 0, 5.8631842e-07
Solving UEqn
Min,max U = 0, 18.411585
DILUPBiCG:  Solving for N2, Initial residual = 0, Final residual = 0, No Iterations 0
DILUPBiCG:  Solving for EMg, Initial residual = 0.00090135619, Final residual = 1.7524642e-07, No Iterations 2
Min,max for N2 = 0, 0
Min,max for EMs = 0, 1
Min,max for EMg = 0, 1
DILUPBiCG:  Solving for hs, Initial residual = 0.0044346347, Final residual = 7.8629252e-07, No Iterations 2
T gas min/max   = 299.05989, 300.26718
DICPCG:  Solving for Ts, Initial residual = 1.3689607e-05, Final residual = 9.1463292e-10, No Iterations 10
T solid min/max   = 300.02841, 300.03039
Solving pEqn
Min,max Uest = 0, 18.423323
GAMG:  Solving for p, Initial residual = 0.010718619, Final residual = 0.00020206197, No Iterations 2
Min,max p = 100000, 102260.52
time step continuity errors : sum local = 1.1211056e-05, global = 9.3978798e-06, cumulative = 1.92239e-05
Min,max U = 0, 18.422103
Solving pEqn
Min,max Uest = 0, 18.423603
GAMGPCG:  Solving for p, Initial residual = 0.00091352, Final residual = 1.0918004e-09, No Iterations 5
Min,max p = 100000, 102262.13
time step continuity errors : sum local = 3.8084191e-07, global = 6.28319e-08, cumulative = 1.9286732e-05
Min,max U = 0, 18.422619
ExecutionTime = 2.27 s  ClockTime = 5 s

Courant Number mean: 0.23602026 max: 0.49425052
deltaT = 1.3888889e-05
Time = 0.0620417

Correcting burningSolid
diagonal:  Solving for alphaGas, Initial residual = 0, Final residual = 0, No Iterations 0
Min/Max Gas Transfer Weights: 0, 1.2306477e-06
Min/Max Solid Transfer Weights: 0, 5.8631842e-07
Solving UEqn
Min,max U = 0, 18.422619
DILUPBiCG:  Solving for N2, Initial residual = 0, Final residual = 0, No Iterations 0
DILUPBiCG:  Solving for EMg, Initial residual = 0.00089618617, Final residual = 1.7153773e-07, No Iterations 2
Min,max for N2 = 0, 0
Min,max for EMs = 0, 1
Min,max for EMg = 0, 1
DILUPBiCG:  Solving for hs, Initial residual = 0.0044086708, Final residual = 7.8281911e-07, No Iterations 2
T gas min/max   = 299.06221, 300.26679
DICPCG:  Solving for Ts, Initial residual = 1.3662382e-05, Final residual = 9.2126788e-10, No Iterations 10
T solid min/max   = 300.02836, 300.03033
Solving pEqn
Min,max Uest = 0, 18.434049
GAMG:  Solving for p, Initial residual = 0.010451908, Final residual = 0.00020088761, No Iterations 2
Min,max p = 100000, 102261.8
time step continuity errors : sum local = 1.0889369e-05, global = 9.0284846e-06, cumulative = 2.8315217e-05
Min,max U = 0, 18.4326
Solving pEqn
Min,max Uest = 0, 18.434311
GAMGPCG:  Solving for p, Initial residual = 0.00091257223, Final residual = 1.0855618e-09, No Iterations 5
Min,max p = 100000, 102263.45
time step continuity errors : sum local = 3.8165815e-07, global = 6.1818515e-08, cumulative = 2.8377035e-05
Min,max U = 0, 18.433085
ExecutionTime = 3.22 s  ClockTime = 7 s

Courant Number mean: 0.2359434 max: 0.49444282
deltaT = 1.3888889e-05
Time = 0.0620556

Correcting burningSolid
diagonal:  Solving for alphaGas, Initial residual = 0, Final residual = 0, No Iterations 0
Min/Max Gas Transfer Weights: 0, 1.2306477e-06
Min/Max Solid Transfer Weights: 0, 5.8631842e-07
Solving UEqn
Min,max U = 0, 18.433085
DILUPBiCG:  Solving for N2, Initial residual = 0, Final residual = 0, No Iterations 0
DILUPBiCG:  Solving for EMg, Initial residual = 0.00089124617, Final residual = 1.6915837e-07, No Iterations 2
Min,max for N2 = 0, 0
Min,max for EMs = 0, 1
Min,max for EMg = 0, 1
DILUPBiCG:  Solving for hs, Initial residual = 0.0043804824, Final residual = 7.796635e-07, No Iterations 2
T gas min/max   = 299.06457, 300.26633
DICPCG:  Solving for Ts, Initial residual = 1.3723018e-05, Final residual = 9.2885426e-10, No Iterations 10
T solid min/max   = 300.0283, 300.03028
Solving pEqn
Min,max Uest = 0, 18.444218
GAMG:  Solving for p, Initial residual = 0.010150736, Final residual = 0.00019970837, No Iterations 2
Min,max p = 100000, 102263.06
time step continuity errors : sum local = 1.0552301e-05, global = 8.6544369e-06, cumulative = 3.7031472e-05
Min,max U = 0, 18.44253
Solving pEqn
Min,max Uest = 0, 18.444462
GAMGPCG:  Solving for p, Initial residual = 0.00090856315, Final residual = 1.077893e-09, No Iterations 5
Min,max p = 100000, 102264.73
time step continuity errors : sum local = 3.8248134e-07, global = 6.0812695e-08, cumulative = 3.7092285e-05
Min,max U = 0, 18.442984
ExecutionTime = 4.2 s  ClockTime = 9 s

Courant Number mean: 0.23586387 max: 0.49462228
deltaT = 1.3888889e-05
Time = 0.0620694

Correcting burningSolid
diagonal:  Solving for alphaGas, Initial residual = 0, Final residual = 0, No Iterations 0
Min/Max Gas Transfer Weights: 0, 1.2306477e-06
Min/Max Solid Transfer Weights: 0, 5.8631842e-07
Solving UEqn
Min,max U = 0, 18.442984
DILUPBiCG:  Solving for N2, Initial residual = 0, Final residual = 0, No Iterations 0
DILUPBiCG:  Solving for EMg, Initial residual = 0.00088594632, Final residual = 1.6693878e-07, No Iterations 2
Min,max for N2 = 0, 0
Min,max for EMs = 0, 1
Min,max for EMg = 0, 1
DILUPBiCG:  Solving for hs, Initial residual = 0.004349723, Final residual = 7.7375822e-07, No Iterations 2
T gas min/max   = 299.06698, 300.26625
DICPCG:  Solving for Ts, Initial residual = 1.378272e-05, Final residual = 9.3730612e-10, No Iterations 10
T solid min/max   = 300.02824, 300.03022
Solving pEqn
Min,max Uest = 0, 18.45383
GAMG:  Solving for p, Initial residual = 0.0098501488, Final residual = 0.00019862875, No Iterations 2
Min,max p = 100000, 102264.26
time step continuity errors : sum local = 1.0199441e-05, global = 8.2766555e-06, cumulative = 4.5368941e-05
Min,max U = 0, 18.451895
Solving pEqn
Min,max Uest = 0, 18.454055
GAMGPCG:  Solving for p, Initial residual = 0.00090467503, Final residual = 1.0731702e-09, No Iterations 5
Min,max p = 100000, 102265.96
time step continuity errors : sum local = 3.8270945e-07, global = 5.9663055e-08, cumulative = 4.5428604e-05
Min,max U = 0, 18.452318
ExecutionTime = 5.1 s  ClockTime = 10 s

Courant Number mean: 0.23578214 max: 0.49478899
deltaT = 1.3888889e-05
Time = 0.0620833

Correcting burningSolid
diagonal:  Solving for alphaGas, Initial residual = 0, Final residual = 0, No Iterations 0
Min/Max Gas Transfer Weights: 0, 1.2306477e-06
Min/Max Solid Transfer Weights: 0, 5.8631842e-07
Solving UEqn
Min,max U = 0, 18.452318
DILUPBiCG:  Solving for N2, Initial residual = 0, Final residual = 0, No Iterations 0
DILUPBiCG:  Solving for EMg, Initial residual = 0.00088009182, Final residual = 1.6479698e-07, No Iterations 2
Min,max for N2 = 0, 0
Min,max for EMs = 0, 1
Min,max for EMg = 0, 1
DILUPBiCG:  Solving for hs, Initial residual = 0.0043169564, Final residual = 7.6529991e-07, No Iterations 2
T gas min/max   = 299.06931, 300.26612
DICPCG:  Solving for Ts, Initial residual = 1.3838064e-05, Final residual = 9.4385535e-10, No Iterations 10
T solid min/max   = 300.02819, 300.03017
Solving pEqn
Min,max Uest = 0, 18.462886
GAMG:  Solving for p, Initial residual = 0.0095160341, Final residual = 0.00019741589, No Iterations 2
Min,max p = 100000, 102265.4
time step continuity errors : sum local = 9.8298177e-06, global = 7.8955236e-06, cumulative = 5.3324127e-05
Min,max U = 0, 18.460699
Solving pEqn
Min,max Uest = 0, 18.463092
GAMGPCG:  Solving for p, Initial residual = 0.00090625805, Final residual = 1.0752366e-09, No Iterations 5
Min,max p = 100000, 102267.14
time step continuity errors : sum local = 3.8255915e-07, global = 5.8341952e-08, cumulative = 5.3382469e-05
Min,max U = 0, 18.46109
ExecutionTime = 6.12 s  ClockTime = 12 s

Courant Number mean: 0.23569573 max: 0.49494307
deltaT = 1.3888889e-05
Time = 0.0620972

Correcting burningSolid
diagonal:  Solving for alphaGas, Initial residual = 0, Final residual = 0, No Iterations 0
Min/Max Gas Transfer Weights: 0, 1.2306477e-06
Min/Max Solid Transfer Weights: 0, 5.8631842e-07
Solving UEqn
Min,max U = 0, 18.46109
DILUPBiCG:  Solving for N2, Initial residual = 0, Final residual = 0, No Iterations 0
DILUPBiCG:  Solving for EMg, Initial residual = 0.00087427516, Final residual = 1.6256816e-07, No Iterations 2
Min,max for N2 = 0, 0
Min,max for EMs = 0, 1
Min,max for EMg = 0, 1
DILUPBiCG:  Solving for hs, Initial residual = 0.0042825045, Final residual = 7.5399508e-07, No Iterations 2
T gas min/max   = 299.07164, 300.26593
DICPCG:  Solving for Ts, Initial residual = 1.3889917e-05, Final residual = 9.4872911e-10, No Iterations 10
T solid min/max   = 300.02813, 300.03011
Solving pEqn
Min,max Uest = 0, 18.471388
GAMG:  Solving for p, Initial residual = 0.0091674002, Final residual = 0.00019601199, No Iterations 2
Min,max p = 100000, 102266.49
time step continuity errors : sum local = 9.4429066e-06, global = 7.5115087e-06, cumulative = 6.0893978e-05
Min,max U = 0, 18.468945
Solving pEqn
Min,max Uest = 0, 18.471574
GAMGPCG:  Solving for p, Initial residual = 0.00090387621, Final residual = 1.0724993e-09, No Iterations 5
Min,max p = 100000, 102268.25
time step continuity errors : sum local = 3.8213674e-07, global = 5.6945271e-08, cumulative = 6.0950923e-05
Min,max U = 0, 18.469302
ExecutionTime = 7.07 s  ClockTime = 14 s

Courant Number mean: 0.23560476 max: 0.49508472
deltaT = 1.3888889e-05
Time = 0.0621111

Correcting burningSolid
diagonal:  Solving for alphaGas, Initial residual = 0, Final residual = 0, No Iterations 0
Min/Max Gas Transfer Weights: 0, 1.2306477e-06
Min/Max Solid Transfer Weights: 0, 5.8631842e-07
Solving UEqn
Min,max U = 0, 18.469302
DILUPBiCG:  Solving for N2, Initial residual = 0, Final residual = 0, No Iterations 0
DILUPBiCG:  Solving for EMg, Initial residual = 0.00086840615, Final residual = 1.6059547e-07, No Iterations 2
Min,max for N2 = 0, 0
Min,max for EMs = 0, 1
Min,max for EMg = 0, 1
DILUPBiCG:  Solving for hs, Initial residual = 0.0042461575, Final residual = 7.4192044e-07, No Iterations 2
T gas min/max   = 299.07401, 300.26566
DICPCG:  Solving for Ts, Initial residual = 1.3937362e-05, Final residual = 9.5477143e-10, No Iterations 10
T solid min/max   = 300.02807, 300.03006
Solving pEqn
Min,max Uest = 0, 18.479339
GAMG:  Solving for p, Initial residual = 0.008840706, Final residual = 0.00019466719, No Iterations 2
Min,max p = 100000, 102267.5
time step continuity errors : sum local = 9.0386949e-06, global = 7.1249946e-06, cumulative = 6.8075918e-05
Min,max U = 0, 18.476636
Solving pEqn
Min,max Uest = 0, 18.479504
GAMGPCG:  Solving for p, Initial residual = 0.00090011128, Final residual = 1.0632242e-09, No Iterations 5
Min,max p = 100000, 102269.28
time step continuity errors : sum local = 3.815585e-07, global = 5.5529694e-08, cumulative = 6.8131447e-05
Min,max U = 0, 18.47696
ExecutionTime = 7.96 s  ClockTime = 16 s

Courant Number mean: 0.23550925 max: 0.49521415
deltaT = 1.3888889e-05
Time = 0.062125

Correcting burningSolid
diagonal:  Solving for alphaGas, Initial residual = 0, Final residual = 0, No Iterations 0
Min/Max Gas Transfer Weights: 0, 1.2306477e-06
Min/Max Solid Transfer Weights: 0, 5.8631842e-07
Solving UEqn
Min,max U = 0, 18.47696
DILUPBiCG:  Solving for N2, Initial residual = 0, Final residual = 0, No Iterations 0
DILUPBiCG:  Solving for EMg, Initial residual = 0.00086157717, Final residual = 1.5889217e-07, No Iterations 2
Min,max for N2 = 0, 0
Min,max for EMs = 0, 1
Min,max for EMg = 0, 1
DILUPBiCG:  Solving for hs, Initial residual = 0.0042072718, Final residual = 7.2907982e-07, No Iterations 2
T gas min/max   = 299.07642, 300.2657
DICPCG:  Solving for Ts, Initial residual = 1.3980454e-05, Final residual = 9.6073623e-10, No Iterations 10
T solid min/max   = 300.02801, 300.03
Solving pEqn
Min,max Uest = 0, 18.486743
GAMG:  Solving for p, Initial residual = 0.0084859224, Final residual = 0.00019345736, No Iterations 2
Min,max p = 100000, 102268.45
time step continuity errors : sum local = 8.6172848e-06, global = 6.7362086e-06, cumulative = 7.4867656e-05
Min,max U = 0, 18.483779
Solving pEqn
Min,max Uest = 0, 18.486887
GAMGPCG:  Solving for p, Initial residual = 0.00088824756, Final residual = 1.051549e-09, No Iterations 5
Min,max p = 100000, 102270.24
time step continuity errors : sum local = 3.808413e-07, global = 5.4240861e-08, cumulative = 7.4921897e-05
Min,max U = 0, 18.48407
ExecutionTime = 8.89 s  ClockTime = 18 s

Courant Number mean: 0.23541256 max: 0.49533163
deltaT = 1.3888889e-05
Time = 0.0621389

Correcting burningSolid
diagonal:  Solving for alphaGas, Initial residual = 0, Final residual = 0, No Iterations 0
Min/Max Gas Transfer Weights: 0, 1.2306477e-06
Min/Max Solid Transfer Weights: 0, 5.8631842e-07
Solving UEqn
Min,max U = 0, 18.48407
DILUPBiCG:  Solving for N2, Initial residual = 0, Final residual = 0, No Iterations 0
DILUPBiCG:  Solving for EMg, Initial residual = 0.0008535389, Final residual = 1.5721289e-07, No Iterations 2
Min,max for N2 = 0, 0
Min,max for EMs = 0, 1
Min,max for EMg = 0, 1
DILUPBiCG:  Solving for hs, Initial residual = 0.0041664445, Final residual = 7.1544573e-07, No Iterations 2
T gas min/max   = 299.07888, 300.26574
DICPCG:  Solving for Ts, Initial residual = 1.4019106e-05, Final residual = 9.6672337e-10, No Iterations 10
T solid min/max   = 300.02796, 300.02995
Solving pEqn
Min,max Uest = 0, 18.493606
GAMG:  Solving for p, Initial residual = 0.0081126209, Final residual = 0.00019193308, No Iterations 2
Min,max p = 100000, 102269.32
time step continuity errors : sum local = 8.1782815e-06, global = 6.3460058e-06, cumulative = 8.1267903e-05
Min,max U = 0, 18.490382
Solving pEqn
Min,max Uest = 0, 18.493729
GAMGPCG:  Solving for p, Initial residual = 0.00088604015, Final residual = 1.0533358e-09, No Iterations 5
Min,max p = 100000, 102271.13
time step continuity errors : sum local = 3.8008317e-07, global = 5.2694747e-08, cumulative = 8.1320598e-05
Min,max U = 0, 18.490641
ExecutionTime = 9.87 s  ClockTime = 20 s

Courant Number mean: 0.23531484 max: 0.49543746
deltaT = 1.3888889e-05
Time = 0.0621528

Correcting burningSolid
diagonal:  Solving for alphaGas, Initial residual = 0, Final residual = 0, No Iterations 0
Min/Max Gas Transfer Weights: 0, 1.2306477e-06
Min/Max Solid Transfer Weights: 0, 5.8631842e-07
Solving UEqn
Min,max U = 0, 18.490641
DILUPBiCG:  Solving for N2, Initial residual = 0, Final residual = 0, No Iterations 0
DILUPBiCG:  Solving for EMg, Initial residual = 0.00084541491, Final residual = 1.5635203e-07, No Iterations 2
Min,max for N2 = 0, 0
Min,max for EMs = 0, 1
Min,max for EMg = 0, 1
DILUPBiCG:  Solving for hs, Initial residual = 0.0041237264, Final residual = 7.013804e-07, No Iterations 2
T gas min/max   = 299.08092, 300.2657
DICPCG:  Solving for Ts, Initial residual = 1.4053182e-05, Final residual = 9.7207194e-10, No Iterations 10
T solid min/max   = 300.0279, 300.02989
Solving pEqn
Min,max Uest = 0, 18.499937
GAMG:  Solving for p, Initial residual = 0.0077314673, Final residual = 0.00019048849, No Iterations 2
Min,max p = 100000, 102270.12
time step continuity errors : sum local = 7.722275e-06, global = 5.9544191e-06, cumulative = 8.7275017e-05
Min,max U = 0, 18.496456
Solving pEqn
Min,max Uest = 0, 18.50004
GAMGPCG:  Solving for p, Initial residual = 0.00088741331, Final residual = 1.0503682e-09, No Iterations 5
Min,max p = 100000, 102271.93
time step continuity errors : sum local = 3.7970671e-07, global = 5.1217205e-08, cumulative = 8.7326234e-05
Min,max U = 0, 18.496676
ExecutionTime = 10.78 s  ClockTime = 22 s

Courant Number mean: 0.23521344 max: 0.49553196
deltaT = 1.3888889e-05
Time = 0.0621667

Correcting burningSolid
diagonal:  Solving for alphaGas, Initial residual = 0, Final residual = 0, No Iterations 0
Min/Max Gas Transfer Weights: 0, 1.2306477e-06
Min/Max Solid Transfer Weights: 0, 5.8631842e-07
Solving UEqn
Min,max U = 0, 18.496676
DILUPBiCG:  Solving for N2, Initial residual = 0, Final residual = 0, No Iterations 0
DILUPBiCG:  Solving for EMg, Initial residual = 0.00083725492, Final residual = 1.56271e-07, No Iterations 2
Min,max for N2 = 0, 0
Min,max for EMs = 0, 1
Min,max for EMg = 0, 1
DILUPBiCG:  Solving for hs, Initial residual = 0.0040793006, Final residual = 6.8729115e-07, No Iterations 2
T gas min/max   = 299.08145, 300.26559
DICPCG:  Solving for Ts, Initial residual = 1.4082682e-05, Final residual = 9.763242e-10, No Iterations 10
T solid min/max   = 300.02784, 300.02983
Solving pEqn
Min,max Uest = 0, 18.505741
GAMG:  Solving for p, Initial residual = 0.0073035996, Final residual = 0.0001891865, No Iterations 2
Min,max p = 100000, 102270.84
time step continuity errors : sum local = 7.2499695e-06, global = 5.5618042e-06, cumulative = 9.2888038e-05
Min,max U = 0, 18.502004
Solving pEqn
Min,max Uest = 0, 18.505824
GAMGPCG:  Solving for p, Initial residual = 0.00088566192, Final residual = 1.0479748e-09, No Iterations 5
Min,max p = 100000, 102272.65
time step continuity errors : sum local = 3.7940385e-07, global = 4.976639e-08, cumulative = 9.2937804e-05
Min,max U = 0, 18.50219
ExecutionTime = 11.71 s  ClockTime = 24 s

Courant Number mean: 0.23510805 max: 0.49561548
deltaT = 1.3888889e-05
Time = 0.0621806

Correcting burningSolid
diagonal:  Solving for alphaGas, Initial residual = 0, Final residual = 0, No Iterations 0
Min/Max Gas Transfer Weights: 0, 1.2306477e-06
Min/Max Solid Transfer Weights: 0, 5.8631842e-07
Solving UEqn
Min,max U = 0, 18.50219
DILUPBiCG:  Solving for N2, Initial residual = 0, Final residual = 0, No Iterations 0
DILUPBiCG:  Solving for EMg, Initial residual = 0.000829306, Final residual = 1.5695879e-07, No Iterations 2
Min,max for N2 = 0, 0
Min,max for EMs = 0, 1
Min,max for EMg = 0, 1
DILUPBiCG:  Solving for hs, Initial residual = 0.0040337079, Final residual = 6.7303619e-07, No Iterations 2
T gas min/max   = 299.08191, 300.26538
DICPCG:  Solving for Ts, Initial residual = 1.4107515e-05, Final residual = 9.7953265e-10, No Iterations 10
T solid min/max   = 300.02778, 300.02978
Solving pEqn
Min,max Uest = 0, 18.511032
GAMG:  Solving for p, Initial residual = 0.006877078, Final residual = 0.00018819059, No Iterations 2
Min,max p = 100000, 102271.49
time step continuity errors : sum local = 6.7627827e-06, global = 5.168489e-06, cumulative = 9.8106293e-05
Min,max U = 0, 18.507047
Solving pEqn
Min,max Uest = 0, 18.511096
GAMGPCG:  Solving for p, Initial residual = 0.00088054242, Final residual = 1.0422522e-09, No Iterations 5
Min,max p = 100000, 102273.29
time step continuity errors : sum local = 3.7898373e-07, global = 4.8262181e-08, cumulative = 9.8154556e-05
Min,max U = 0, 18.507207
ExecutionTime = 12.66 s  ClockTime = 26 s

Courant Number mean: 0.23499924 max: 0.4956885
deltaT = 1.3888889e-05
Time = 0.0621944

Correcting burningSolid
diagonal:  Solving for alphaGas, Initial residual = 0, Final residual = 0, No Iterations 0
Min/Max Gas Transfer Weights: 0, 1.2306477e-06
Min/Max Solid Transfer Weights: 0, 5.8631842e-07
Solving UEqn
Min,max U = 0, 18.507207
DILUPBiCG:  Solving for N2, Initial residual = 0, Final residual = 0, No Iterations 0
DILUPBiCG:  Solving for EMg, Initial residual = 0.00082109388, Final residual = 1.5959104e-07, No Iterations 2
Min,max for N2 = 0, 0
Min,max for EMs = 0, 1
Min,max for EMg = 0, 1
DILUPBiCG:  Solving for hs, Initial residual = 0.0039871847, Final residual = 6.5877189e-07, No Iterations 2
T gas min/max   = 299.08229, 300.26536
DICPCG:  Solving for Ts, Initial residual = 1.4127566e-05, Final residual = 9.8188118e-10, No Iterations 10
T solid min/max   = 300.02773, 300.02972
Solving pEqn
Min,max Uest = 0, 18.515834
GAMG:  Solving for p, Initial residual = 0.0064348593, Final residual = 0.00018754086, No Iterations 2
Min,max p = 100000, 102272.06
time step continuity errors : sum local = 6.2630971e-06, global = 4.7745956e-06, cumulative = 0.00010292915
Min,max U = 0, 18.511612
Solving pEqn
Min,max Uest = 0, 18.51588
GAMGPCG:  Solving for p, Initial residual = 0.00087527703, Final residual = 1.0357423e-09, No Iterations 5
Min,max p = 100000, 102273.84
time step continuity errors : sum local = 3.7828044e-07, global = 4.6817366e-08, cumulative = 0.00010297597
Min,max U = 0, 18.511744
ExecutionTime = 13.59 s  ClockTime = 28 s

Courant Number mean: 0.23489015 max: 0.49575149
deltaT = 1.3888889e-05
Time = 0.0622083

Correcting burningSolid
diagonal:  Solving for alphaGas, Initial residual = 0, Final residual = 0, No Iterations 0
Min/Max Gas Transfer Weights: 0, 1.2306477e-06
Min/Max Solid Transfer Weights: 0, 5.8631842e-07
Solving UEqn
Min,max U = 0, 18.511744
DILUPBiCG:  Solving for N2, Initial residual = 0, Final residual = 0, No Iterations 0
DILUPBiCG:  Solving for EMg, Initial residual = 0.00081281208, Final residual = 1.6644101e-07, No Iterations 2
Min,max for N2 = 0, 0
Min,max for EMs = 0, 1
Min,max for EMg = 0, 1
DILUPBiCG:  Solving for hs, Initial residual = 0.0039402603, Final residual = 6.4480475e-07, No Iterations 2
T gas min/max   = 299.08268, 300.26546
DICPCG:  Solving for Ts, Initial residual = 1.4142797e-05, Final residual = 9.8351106e-10, No Iterations 10
T solid min/max   = 300.02767, 300.02966
Solving pEqn
Min,max Uest = 0, 18.520163
GAMG:  Solving for p, Initial residual = 0.0060034778, Final residual = 0.00018724962, No Iterations 2
Min,max p = 100000, 102272.54
time step continuity errors : sum local = 5.7539121e-06, global = 4.3801089e-06, cumulative = 0.00010735608
Min,max U = 0, 18.515709
Solving pEqn
Min,max Uest = 0, 18.520192
GAMGPCG:  Solving for p, Initial residual = 0.00087414387, Final residual = 1.031274e-09, No Iterations 5
Min,max p = 100000, 102274.31
time step continuity errors : sum local = 3.777092e-07, global = 4.5655293e-08, cumulative = 0.00010740173
Min,max U = 0, 18.515813
ExecutionTime = 14.47 s  ClockTime = 30 s

Courant Number mean: 0.23478047 max: 0.4958049
deltaT = 1.3888889e-05
Time = 0.0622222

Correcting burningSolid
diagonal:  Solving for alphaGas, Initial residual = 0, Final residual = 0, No Iterations 0
Min/Max Gas Transfer Weights: 0, 1.2306477e-06
Min/Max Solid Transfer Weights: 0, 5.8631842e-07
Solving UEqn
Min,max U = 0, 18.515813
DILUPBiCG:  Solving for N2, Initial residual = 0, Final residual = 0, No Iterations 0
DILUPBiCG:  Solving for EMg, Initial residual = 0.00080437343, Final residual = 1.8080353e-07, No Iterations 2
Min,max for N2 = 0, 0
Min,max for EMs = 0, 1
Min,max for EMg = 0, 1
DILUPBiCG:  Solving for hs, Initial residual = 0.0038970938, Final residual = 6.3142507e-07, No Iterations 2
T gas min/max   = 299.08308, 300.26546
DICPCG:  Solving for Ts, Initial residual = 1.4153205e-05, Final residual = 9.8459174e-10, No Iterations 10
T solid min/max   = 300.02761, 300.02961
Solving pEqn
Min,max Uest = 0, 18.524035
GAMG:  Solving for p, Initial residual = 0.0055781856, Final residual = 0.00018755272, No Iterations 2
Min,max p = 100000, 102272.95
time step continuity errors : sum local = 5.2357817e-06, global = 3.9849579e-06, cumulative = 0.00011138669
Min,max U = 0, 18.519357
Solving pEqn
Min,max Uest = 0, 18.524047
GAMGPCG:  Solving for p, Initial residual = 0.00086927071, Final residual = 1.0292293e-09, No Iterations 5
Min,max p = 100000, 102274.7
time step continuity errors : sum local = 3.7781214e-07, global = 4.4979837e-08, cumulative = 0.00011143167
Min,max U = 0, 18.519435
ExecutionTime = 15.4 s  ClockTime = 32 s

Courant Number mean: 0.23466827 max: 0.49584925
deltaT = 1.3888889e-05
Time = 0.0622361

Correcting burningSolid
diagonal:  Solving for alphaGas, Initial residual = 0, Final residual = 0, No Iterations 0
Min/Max Gas Transfer Weights: 0, 1.2306477e-06
Min/Max Solid Transfer Weights: 0, 5.8631842e-07
Solving UEqn
Min,max U = 0, 18.519435
DILUPBiCG:  Solving for N2, Initial residual = 0, Final residual = 0, No Iterations 0
DILUPBiCG:  Solving for EMg, Initial residual = 0.00079602968, Final residual = 2.0580064e-07, No Iterations 2
Min,max for N2 = 0, 0
Min,max for EMs = 0, 1
Min,max for EMg = 0, 1
DILUPBiCG:  Solving for hs, Initial residual = 0.0038579929, Final residual = 6.1947242e-07, No Iterations 2
T gas min/max   = 299.08348, 300.26537
DICPCG:  Solving for Ts, Initial residual = 1.4158705e-05, Final residual = 9.8520541e-10, No Iterations 10
T solid min/max   = 300.02756, 300.02955
Solving pEqn
Min,max Uest = 0, 18.527469
GAMG:  Solving for p, Initial residual = 0.0051322387, Final residual = 0.00018807053, No Iterations 2
Min,max p = 100000, 102273.28
time step continuity errors : sum local = 4.7097461e-06, global = 3.5894756e-06, cumulative = 0.00011502115
Min,max U = 0, 18.522576
Solving pEqn
Min,max Uest = 0, 18.527465
GAMGPCG:  Solving for p, Initial residual = 0.00086659349, Final residual = 1.0158702e-09, No Iterations 5
Min,max p = 100000, 102275
time step continuity errors : sum local = 3.7808731e-07, global = 4.4657798e-08, cumulative = 0.0001150658
Min,max U = 0, 18.522631
ExecutionTime = 16.36 s  ClockTime = 34 s

Courant Number mean: 0.23455271 max: 0.49588508
deltaT = 1.3888889e-05
Time = 0.06225

Correcting burningSolid
diagonal:  Solving for alphaGas, Initial residual = 0, Final residual = 0, No Iterations 0
Min/Max Gas Transfer Weights: 0, 1.2306477e-06
Min/Max Solid Transfer Weights: 0, 5.8631842e-07
Solving UEqn
Min,max U = 0, 18.522631
DILUPBiCG:  Solving for N2, Initial residual = 0, Final residual = 0, No Iterations 0
DILUPBiCG:  Solving for EMg, Initial residual = 0.00078715987, Final residual = 2.7156089e-07, No Iterations 2
Min,max for N2 = 0, 0
Min,max for EMs = 0, 1
Min,max for EMg = 0, 1
DILUPBiCG:  Solving for hs, Initial residual = 0.0038225757, Final residual = 6.0787449e-07, No Iterations 2
T gas min/max   = 299.08388, 300.26535
DICPCG:  Solving for Ts, Initial residual = 1.4159177e-05, Final residual = 9.8533314e-10, No Iterations 10
T solid min/max   = 300.0275, 300.0295
Solving pEqn
Min,max Uest = 0, 18.530488
GAMG:  Solving for p, Initial residual = 0.0046753599, Final residual = 0.0001891508, No Iterations 2
Min,max p = 100000, 102273.53
time step continuity errors : sum local = 4.1771118e-06, global = 3.1934896e-06, cumulative = 0.00011825929
Min,max U = 0, 18.525394
Solving pEqn
Min,max Uest = 0, 18.53047
GAMGPCG:  Solving for p, Initial residual = 0.00086415674, Final residual = 1.0020477e-09, No Iterations 5
Min,max p = 100000, 102275.22
time step continuity errors : sum local = 3.788841e-07, global = 4.4946914e-08, cumulative = 0.00011830424
Min,max U = 0, 18.525427
ExecutionTime = 17.32 s  ClockTime = 36 s

Courant Number mean: 0.23443534 max: 0.49591299
deltaT = 1.3888889e-05
Time = 0.0622639

Correcting burningSolid
diagonal:  Solving for alphaGas, Initial residual = 0, Final residual = 0, No Iterations 0
Min/Max Gas Transfer Weights: 0, 1.2306477e-06
Min/Max Solid Transfer Weights: 0, 5.8631842e-07
Solving UEqn
Min,max U = 0, 18.525427
DILUPBiCG:  Solving for N2, Initial residual = 0, Final residual = 0, No Iterations 0
DILUPBiCG:  Solving for EMg, Initial residual = 0.00077791125, Final residual = 8.3623576e-07, No Iterations 2
Min,max for N2 = 0, 0
Min,max for EMs = 0, 1
Min,max for EMg = 0, 1
DILUPBiCG:  Solving for hs, Initial residual = 0.0037903762, Final residual = 5.9614282e-07, No Iterations 2
T gas min/max   = 299.08424, 300.26555
DICPCG:  Solving for Ts, Initial residual = 1.4154559e-05, Final residual = 9.8512051e-10, No Iterations 10
T solid min/max   = 300.02745, 300.02944
Solving pEqn
Min,max Uest = 0, 18.533119
GAMG:  Solving for p, Initial residual = 0.0042284016, Final residual = 0.00019095987, No Iterations 2
Min,max p = 100000, 102273.71
time step continuity errors : sum local = 3.641167e-06, global = 2.7967472e-06, cumulative = 0.00012110099
Min,max U = 0, 18.527839
Solving pEqn
Min,max Uest = 0, 18.533088
GAMGPCG:  Solving for p, Initial residual = 0.0008615382, Final residual = 9.8931757e-10, No Iterations 5
Min,max p = 100000, 102275.37
time step continuity errors : sum local = 3.799348e-07, global = 4.6176781e-08, cumulative = 0.00012114716
Min,max U = 0, 18.527852
ExecutionTime = 18.25 s  ClockTime = 37 s

Courant Number mean: 0.23431775 max: 0.49593359
deltaT = 1.3888889e-05
Time = 0.0622778

Correcting burningSolid
diagonal:  Solving for alphaGas, Initial residual = 0, Final residual = 0, No Iterations 0
Min/Max Gas Transfer Weights: 0, 1.2306477e-06
Min/Max Solid Transfer Weights: 0, 5.8631842e-07
Solving UEqn
Min,max U = 0, 18.527852
DILUPBiCG:  Solving for N2, Initial residual = 0, Final residual = 0, No Iterations 0
DILUPBiCG:  Solving for EMg, Initial residual = 0.00076930984, Final residual = 2.0268251e-07, No Iterations 2
Min,max for N2 = 0, 0
Min,max for EMs = 0, 1
Min,max for EMg = 0, 1
DILUPBiCG:  Solving for hs, Initial residual = 0.003761801, Final residual = 5.8524406e-07, No Iterations 2
T gas min/max   = 299.08449, 300.26565
DICPCG:  Solving for Ts, Initial residual = 1.4144808e-05, Final residual = 9.8459995e-10, No Iterations 10
T solid min/max   = 300.02739, 300.02938
Solving pEqn
Min,max Uest = 0, 18.53539
GAMG:  Solving for p, Initial residual = 0.0037745348, Final residual = 7.1613509e-05, No Iterations 3
Min,max p = 100000, 102273.78
time step continuity errors : sum local = 3.2265522e-06, global = 2.5378293e-06, cumulative = 0.00012368499
Min,max U = 0, 18.529929
Solving pEqn
Min,max Uest = 0, 18.535348
GAMGPCG:  Solving for p, Initial residual = 0.00078063889, Final residual = 1.1142207e-09, No Iterations 5
Min,max p = 100000, 102275.46
time step continuity errors : sum local = 2.8646764e-07, global = -9.0150247e-08, cumulative = 0.00012359484
Min,max U = 0, 18.529936
ExecutionTime = 19.14 s  ClockTime = 39 s

Courant Number mean: 0.23420001 max: 0.49594754
deltaT = 1.3888889e-05
Time = 0.0622917

Correcting burningSolid
diagonal:  Solving for alphaGas, Initial residual = 0, Final residual = 0, No Iterations 0
Min/Max Gas Transfer Weights: 0, 1.2306477e-06
Min/Max Solid Transfer Weights: 0, 5.8631842e-07
Solving UEqn
Min,max U = 0, 18.529936
DILUPBiCG:  Solving for N2, Initial residual = 0, Final residual = 0, No Iterations 0
DILUPBiCG:  Solving for EMg, Initial residual = 0.00076119998, Final residual = 7.6152681e-08, No Iterations 2
Min,max for N2 = 0, 0
Min,max for EMs = 0, 1
Min,max for EMg = 0, 1
DILUPBiCG:  Solving for hs, Initial residual = 0.0037366312, Final residual = 5.7579764e-07, No Iterations 2
T gas min/max   = 299.08463, 300.26565
DICPCG:  Solving for Ts, Initial residual = 1.4129843e-05, Final residual = 9.8367706e-10, No Iterations 10
T solid min/max   = 300.02734, 300.02933
Solving pEqn
Min,max Uest = 0, 18.537331
GAMG:  Solving for p, Initial residual = 0.0033336071, Final residual = 7.2424409e-05, No Iterations 3
Min,max p = 100000, 102273.8
time step continuity errors : sum local = 2.7193229e-06, global = 2.1436934e-06, cumulative = 0.00012573854
Min,max U = 0, 18.531719
Solving pEqn
Min,max Uest = 0, 18.537278
GAMGPCG:  Solving for p, Initial residual = 0.00077989875, Final residual = 1.1020409e-09, No Iterations 5
Min,max p = 100000, 102275.47
time step continuity errors : sum local = 2.8737835e-07, global = -9.1029625e-08, cumulative = 0.00012564751
Min,max U = 0, 18.531709
ExecutionTime = 20.13 s  ClockTime = 41 s

Courant Number mean: 0.23408154 max: 0.4959555
deltaT = 1.3888889e-05
Time = 0.0623056

Correcting burningSolid
diagonal:  Solving for alphaGas, Initial residual = 0, Final residual = 0, No Iterations 0
Min/Max Gas Transfer Weights: 0, 1.2306477e-06
Min/Max Solid Transfer Weights: 0, 5.8631842e-07
Solving UEqn
Min,max U = 0, 18.531709
DILUPBiCG:  Solving for N2, Initial residual = 0, Final residual = 0, No Iterations 0
DILUPBiCG:  Solving for EMg, Initial residual = 0.00075291276, Final residual = 7.7939674e-08, No Iterations 2
Min,max for N2 = 0, 0
Min,max for EMs = 0, 1
Min,max for EMg = 0, 1
DILUPBiCG:  Solving for hs, Initial residual = 0.0037159436, Final residual = 5.6720336e-07, No Iterations 2
T gas min/max   = 299.0847, 300.26555
DICPCG:  Solving for Ts, Initial residual = 1.4109597e-05, Final residual = 9.8232626e-10, No Iterations 10
T solid min/max   = 300.02729, 300.02927
Solving pEqn
Min,max Uest = 0, 18.538968
GAMG:  Solving for p, Initial residual = 0.0029420947, Final residual = 7.3012874e-05, No Iterations 3
Min,max p = 100000, 102273.76
time step continuity errors : sum local = 2.2349477e-06, global = 1.7501785e-06, cumulative = 0.00012739769
Min,max U = 0, 18.533225
Solving pEqn
Min,max Uest = 0, 18.538905
GAMGPCG:  Solving for p, Initial residual = 0.00077706047, Final residual = 1.0969083e-09, No Iterations 5
Min,max p = 100000, 102275.41
time step continuity errors : sum local = 2.8771127e-07, global = -9.2181712e-08, cumulative = 0.0001273055
Min,max U = 0, 18.533201
ExecutionTime = 21.02 s  ClockTime = 43 s

Courant Number mean: 0.23396121 max: 0.49595816
deltaT = 1.3888889e-05
Time = 0.0623194

Correcting burningSolid
diagonal:  Solving for alphaGas, Initial residual = 0, Final residual = 0, No Iterations 0
Min/Max Gas Transfer Weights: 0, 1.2306477e-06
Min/Max Solid Transfer Weights: 0, 5.8631842e-07
Solving UEqn
Min,max U = 0, 18.533201
DILUPBiCG:  Solving for N2, Initial residual = 0, Final residual = 0, No Iterations 0
DILUPBiCG:  Solving for EMg, Initial residual = 0.00074467118, Final residual = 8.6468127e-08, No Iterations 2
Min,max for N2 = 0, 0
Min,max for EMs = 0, 1
Min,max for EMg = 0, 1
DILUPBiCG:  Solving for hs, Initial residual = 0.0036996239, Final residual = 5.5984905e-07, No Iterations 2
T gas min/max   = 299.08477, 300.26537
DICPCG:  Solving for Ts, Initial residual = 1.4083991e-05, Final residual = 9.8048222e-10, No Iterations 10
T solid min/max   = 300.02723, 300.02921
Solving pEqn
Min,max Uest = 0, 18.540327
GAMG:  Solving for p, Initial residual = 0.0025741522, Final residual = 7.2721447e-05, No Iterations 3
Min,max p = 100000, 102273.65
time step continuity errors : sum local = 1.7711056e-06, global = 1.3572039e-06, cumulative = 0.00012866271
Min,max U = 0, 18.534474
Solving pEqn
Min,max Uest = 0, 18.540256
GAMGPCG:  Solving for p, Initial residual = 0.00078223662, Final residual = 1.0909273e-09, No Iterations 5
Min,max p = 100000, 102275.29
time step continuity errors : sum local = 2.8743056e-07, global = -9.348671e-08, cumulative = 0.00012856922
Min,max U = 0, 18.534436
ExecutionTime = 21.95 s  ClockTime = 45 s

Courant Number mean: 0.23383967 max: 0.49595621
deltaT = 1.3888889e-05
Time = 0.0623333

Correcting burningSolid
diagonal:  Solving for alphaGas, Initial residual = 0, Final residual = 0, No Iterations 0
Min/Max Gas Transfer Weights: 0, 1.2306477e-06
Min/Max Solid Transfer Weights: 0, 5.8631842e-07
Solving UEqn
Min,max U = 0, 18.534436
DILUPBiCG:  Solving for N2, Initial residual = 0, Final residual = 0, No Iterations 0
DILUPBiCG:  Solving for EMg, Initial residual = 0.00073690499, Final residual = 9.0960146e-08, No Iterations 2
Min,max for N2 = 0, 0
Min,max for EMs = 0, 1
Min,max for EMg = 0, 1
DILUPBiCG:  Solving for hs, Initial residual = 0.0036874194, Final residual = 5.5369056e-07, No Iterations 2
T gas min/max   = 299.08484, 300.26556
DICPCG:  Solving for Ts, Initial residual = 1.405299e-05, Final residual = 9.781371e-10, No Iterations 10
T solid min/max   = 300.02718, 300.02916
Solving pEqn
Min,max Uest = 0, 18.541433
GAMG:  Solving for p, Initial residual = 0.0022115679, Final residual = 6.9884259e-05, No Iterations 3
Min,max p = 100000, 102273.49
time step continuity errors : sum local = 1.3313594e-06, global = 9.6367332e-07, cumulative = 0.00012953289
Min,max U = 0, 18.535491
Solving pEqn
Min,max Uest = 0, 18.541356
GAMGPCG:  Solving for p, Initial residual = 0.00077819284, Final residual = 1.08378e-09, No Iterations 5
Min,max p = 100000, 102275.09
time step continuity errors : sum local = 2.843434e-07, global = -9.3807164e-08, cumulative = 0.00012943909
Min,max U = 0, 18.535442
ExecutionTime = 22.89 s  ClockTime = 47 s

Courant Number mean: 0.23371998 max: 0.49595033
deltaT = 1.3888889e-05
Time = 0.0623472

Correcting burningSolid
diagonal:  Solving for alphaGas, Initial residual = 0, Final residual = 0, No Iterations 0
Min/Max Gas Transfer Weights: 0, 1.2306477e-06
Min/Max Solid Transfer Weights: 0, 5.8631842e-07
Solving UEqn
Min,max U = 0, 18.535442
DILUPBiCG:  Solving for N2, Initial residual = 0, Final residual = 0, No Iterations 0
DILUPBiCG:  Solving for EMg, Initial residual = 0.00073056694, Final residual = 9.3546715e-08, No Iterations 2
Min,max for N2 = 0, 0
Min,max for EMs = 0, 1
Min,max for EMg = 0, 1
DILUPBiCG:  Solving for hs, Initial residual = 0.0036798337, Final residual = 5.4742794e-07, No Iterations 2
T gas min/max   = 299.08491, 300.26564
DICPCG:  Solving for Ts, Initial residual = 1.4016553e-05, Final residual = 9.7524962e-10, No Iterations 10
T solid min/max   = 300.02713, 300.0291
Solving pEqn
Min,max Uest = 0, 18.54231
GAMG:  Solving for p, Initial residual = 0.0019312375, Final residual = 6.1175881e-05, No Iterations 3
Min,max p = 100000, 102273.26
time step continuity errors : sum local = 9.9480298e-07, global = 5.6376177e-07, cumulative = 0.00013000285
Min,max U = 0, 18.536298
Solving pEqn
Min,max Uest = 0, 18.542227
GAMGPCG:  Solving for p, Initial residual = 0.00076852045, Final residual = 1.0761389e-09, No Iterations 5
Min,max p = 100000, 102274.82
time step continuity errors : sum local = 2.7498277e-07, global = -8.7273676e-08, cumulative = 0.00012991558
Min,max U = 0, 18.53624
ExecutionTime = 23.81 s  ClockTime = 49 s

Courant Number mean: 0.23360109 max: 0.49594122
deltaT = 1.3888889e-05
Time = 0.0623611

Correcting burningSolid
diagonal:  Solving for alphaGas, Initial residual = 0, Final residual = 0, No Iterations 0
Min/Max Gas Transfer Weights: 0, 1.2306477e-06
Min/Max Solid Transfer Weights: 0, 5.8631842e-07
Solving UEqn
Min,max U = 0, 18.53624
DILUPBiCG:  Solving for N2, Initial residual = 0, Final residual = 0, No Iterations 0
DILUPBiCG:  Solving for EMg, Initial residual = 0.00072656775, Final residual = 9.5407453e-08, No Iterations 2
Min,max for N2 = 0, 0
Min,max for EMs = 0, 1
Min,max for EMg = 0, 1
DILUPBiCG:  Solving for hs, Initial residual = 0.0036767793, Final residual = 5.4227571e-07, No Iterations 2
T gas min/max   = 299.08497, 300.26562
DICPCG:  Solving for Ts, Initial residual = 1.3974611e-05, Final residual = 9.7185297e-10, No Iterations 10
T solid min/max   = 300.02708, 300.02904
Solving pEqn
Min,max Uest = 0, 18.542982
GAMG:  Solving for p, Initial residual = 0.0020869274, Final residual = 6.2470258e-05, No Iterations 3
Min,max p = 100000, 102272.97
time step continuity errors : sum local = 1.2345425e-06, global = 1.4883176e-07, cumulative = 0.00013006441
Min,max U = 0, 18.536922
Solving pEqn
Min,max Uest = 0, 18.542894
GAMGPCG:  Solving for p, Initial residual = 0.00077087736, Final residual = 1.0506717e-09, No Iterations 5
Min,max p = 100000, 102274.5
time step continuity errors : sum local = 2.7565507e-07, global = -6.5154468e-08, cumulative = 0.00012999925
Min,max U = 0, 18.536855
ExecutionTime = 24.75 s  ClockTime = 51 s

Courant Number mean: 0.233482 max: 0.49592956
deltaT = 1.3888889e-05
Time = 0.062375

Correcting burningSolid
diagonal:  Solving for alphaGas, Initial residual = 0, Final residual = 0, No Iterations 0
Min/Max Gas Transfer Weights: 0, 1.2306477e-06
Min/Max Solid Transfer Weights: 0, 5.8631842e-07
Solving UEqn
Min,max U = 0, 18.536855
DILUPBiCG:  Solving for N2, Initial residual = 0, Final residual = 0, No Iterations 0
DILUPBiCG:  Solving for EMg, Initial residual = 0.00072776293, Final residual = 9.6922117e-08, No Iterations 2
Min,max for N2 = 0, 0
Min,max for EMs = 0, 1
Min,max for EMg = 0, 1
DILUPBiCG:  Solving for hs, Initial residual = 0.0036783045, Final residual = 5.3772803e-07, No Iterations 2
T gas min/max   = 299.08502, 300.26549
DICPCG:  Solving for Ts, Initial residual = 1.3927124e-05, Final residual = 9.6792257e-10, No Iterations 10
T solid min/max   = 300.02703, 300.02899
Solving pEqn
Min,max Uest = 0, 18.543472
GAMG:  Solving for p, Initial residual = 0.0025213435, Final residual = 6.7225471e-05, No Iterations 3
Min,max p = 100000, 102272.61
time step continuity errors : sum local = 1.7840698e-06, global = -2.6073808e-07, cumulative = 0.00012973851
Min,max U = 0, 18.537386
Solving pEqn
Min,max Uest = 0, 18.543381
GAMGPCG:  Solving for p, Initial residual = 0.00076992787, Final residual = 1.0292383e-09, No Iterations 5
Min,max p = 100000, 102274.13
time step continuity errors : sum local = 2.8000652e-07, global = -4.7697012e-08, cumulative = 0.00012969082
Min,max U = 0, 18.537312
ExecutionTime = 25.67 s  ClockTime = 52 s

Courant Number mean: 0.23336226 max: 0.49591603
deltaT = 1.3888889e-05
Time = 0.0623889

Correcting burningSolid
diagonal:  Solving for alphaGas, Initial residual = 0, Final residual = 0, No Iterations 0
Min/Max Gas Transfer Weights: 0, 1.2306477e-06
Min/Max Solid Transfer Weights: 0, 5.8631842e-07
Solving UEqn
Min,max U = 0, 18.537312
DILUPBiCG:  Solving for N2, Initial residual = 0, Final residual = 0, No Iterations 0
DILUPBiCG:  Solving for EMg, Initial residual = 0.00073348274, Final residual = 9.8353816e-08, No Iterations 2
Min,max for N2 = 0, 0
Min,max for EMs = 0, 1
Min,max for EMg = 0, 1
DILUPBiCG:  Solving for hs, Initial residual = 0.0036846184, Final residual = 5.3403371e-07, No Iterations 2
T gas min/max   = 299.08505, 300.26559
DICPCG:  Solving for Ts, Initial residual = 1.3874039e-05, Final residual = 9.6353711e-10, No Iterations 10
T solid min/max   = 300.02698, 300.02893
Solving pEqn
Min,max Uest = 0, 18.543806
GAMG:  Solving for p, Initial residual = 0.0029941983, Final residual = 6.7294752e-05, No Iterations 3
Min,max p = 100000, 102272.2
time step continuity errors : sum local = 2.3408899e-06, global = -6.6097338e-07, cumulative = 0.00012902984
Min,max U = 0, 18.537714
Solving pEqn
Min,max Uest = 0, 18.543714
GAMGPCG:  Solving for p, Initial residual = 0.0007652127, Final residual = 1.0156983e-09, No Iterations 5
Min,max p = 100000, 102273.71
time step continuity errors : sum local = 2.796668e-07, global = -3.8766983e-08, cumulative = 0.00012899108
Min,max U = 0, 18.537635
ExecutionTime = 26.64 s  ClockTime = 54 s

Courant Number mean: 0.23324351 max: 0.49590131
deltaT = 1.3888889e-05
Time = 0.0624028

Correcting burningSolid
diagonal:  Solving for alphaGas, Initial residual = 0, Final residual = 0, No Iterations 0
Min/Max Gas Transfer Weights: 0, 1.2306477e-06
Min/Max Solid Transfer Weights: 0, 5.8631842e-07
Solving UEqn
Min,max U = 0, 18.537635
DILUPBiCG:  Solving for N2, Initial residual = 0, Final residual = 0, No Iterations 0
DILUPBiCG:  Solving for EMg, Initial residual = 0.00074025013, Final residual = 9.9562239e-08, No Iterations 2
Min,max for N2 = 0, 0
Min,max for EMs = 0, 1
Min,max for EMg = 0, 1
DILUPBiCG:  Solving for hs, Initial residual = 0.0036958276, Final residual = 5.3122187e-07, No Iterations 2
T gas min/max   = 299.08494, 300.26575
DICPCG:  Solving for Ts, Initial residual = 1.3815405e-05, Final residual = 9.589689e-10, No Iterations 10
T solid min/max   = 300.02693, 300.02887
Solving pEqn
Min,max Uest = 0, 18.544012
GAMG:  Solving for p, Initial residual = 0.0034381164, Final residual = 6.5947594e-05, No Iterations 3
Min,max p = 100000, 102271.74
time step continuity errors : sum local = 2.9015124e-06, global = -1.0566073e-06, cumulative = 0.00012793447
Min,max U = 0, 18.537933
Solving pEqn
Min,max Uest = 0, 18.543919
GAMGPCG:  Solving for p, Initial residual = 0.00075907272, Final residual = 1.0022762e-09, No Iterations 5
Min,max p = 100000, 102273.22
time step continuity errors : sum local = 2.7779342e-07, global = -3.3565358e-08, cumulative = 0.0001279009
Min,max U = 0, 18.537852
ExecutionTime = 27.59 s  ClockTime = 56 s

Courant Number mean: 0.23312711 max: 0.49588585
deltaT = 1.3888889e-05
Time = 0.0624167

Correcting burningSolid
diagonal:  Solving for alphaGas, Initial residual = 0, Final residual = 0, No Iterations 0
Min/Max Gas Transfer Weights: 0, 1.2306477e-06
Min/Max Solid Transfer Weights: 0, 5.8631842e-07
Solving UEqn
Min,max U = 0, 18.537852
DILUPBiCG:  Solving for N2, Initial residual = 0, Final residual = 0, No Iterations 0
DILUPBiCG:  Solving for EMg, Initial residual = 0.00074768014, Final residual = 9.9747831e-08, No Iterations 2
Min,max for N2 = 0, 0
Min,max for EMs = 0, 1
Min,max for EMg = 0, 1
DILUPBiCG:  Solving for hs, Initial residual = 0.0037115102, Final residual = 5.2842049e-07, No Iterations 2
T gas min/max   = 299.08468, 300.2658
DICPCG:  Solving for Ts, Initial residual = 1.3750602e-05, Final residual = 9.5418963e-10, No Iterations 10
T solid min/max   = 300.02688, 300.02882
Solving pEqn
Min,max Uest = 0, 18.544117
GAMG:  Solving for p, Initial residual = 0.0038857389, Final residual = 0.00017480833, No Iterations 2
Min,max p = 100000, 102271.26
time step continuity errors : sum local = 3.3389177e-06, global = -1.3691132e-06, cumulative = 0.00012653179
Min,max U = 0, 18.538077
Solving pEqn
Min,max Uest = 0, 18.544024
GAMGPCG:  Solving for p, Initial residual = 0.00083024064, Final residual = 1.1015178e-09, No Iterations 5
Min,max p = 100000, 102272.67
time step continuity errors : sum local = 3.567571e-07, global = -1.1012277e-07, cumulative = 0.00012642167
Min,max U = 0, 18.537987
ExecutionTime = 28.54 s  ClockTime = 58 s

Courant Number mean: 0.23301205 max: 0.49587021
deltaT = 1.3888889e-05
Time = 0.0624306

Correcting burningSolid
diagonal:  Solving for alphaGas, Initial residual = 0, Final residual = 0, No Iterations 0
Min/Max Gas Transfer Weights: 0, 1.2306477e-06
Min/Max Solid Transfer Weights: 0, 5.8631842e-07
Solving UEqn
Min,max U = 0, 18.537987
DILUPBiCG:  Solving for N2, Initial residual = 0, Final residual = 0, No Iterations 0
DILUPBiCG:  Solving for EMg, Initial residual = 0.00075505279, Final residual = 9.9501613e-08, No Iterations 2
Min,max for N2 = 0, 0
Min,max for EMs = 0, 1
Min,max for EMg = 0, 1
DILUPBiCG:  Solving for hs, Initial residual = 0.0037313734, Final residual = 5.2673121e-07, No Iterations 2
T gas min/max   = 299.08442, 300.26575
DICPCG:  Solving for Ts, Initial residual = 1.3680269e-05, Final residual = 9.4943589e-10, No Iterations 10
T solid min/max   = 300.02683, 300.02876
Solving pEqn
Min,max Uest = 0, 18.544147
GAMG:  Solving for p, Initial residual = 0.0043174173, Final residual = 0.00017029853, No Iterations 2
Min,max p = 100000, 102270.69
time step continuity errors : sum local = 3.903307e-06, global = -1.7518683e-06, cumulative = 0.0001246698
Min,max U = 0, 18.538159
Solving pEqn
Min,max Uest = 0, 18.544057
GAMGPCG:  Solving for p, Initial residual = 0.0008308812, Final residual = 1.0963599e-09, No Iterations 5
Min,max p = 100000, 102272.07
time step continuity errors : sum local = 3.5295489e-07, global = -1.153432e-07, cumulative = 0.00012455446
Min,max U = 0, 18.538071
ExecutionTime = 29.49 s  ClockTime = 60 s

Courant Number mean: 0.23289825 max: 0.49585613
deltaT = 1.3888889e-05
Time = 0.0624444

Correcting burningSolid
diagonal:  Solving for alphaGas, Initial residual = 0, Final residual = 0, No Iterations 0
Min/Max Gas Transfer Weights: 0, 1.2306477e-06
Min/Max Solid Transfer Weights: 0, 5.8631842e-07
Solving UEqn
Min,max U = 0, 18.538071
DILUPBiCG:  Solving for N2, Initial residual = 0, Final residual = 0, No Iterations 0
DILUPBiCG:  Solving for EMg, Initial residual = 0.00076239008, Final residual = 9.9309073e-08, No Iterations 2
Min,max for N2 = 0, 0
Min,max for EMs = 0, 1
Min,max for EMg = 0, 1
DILUPBiCG:  Solving for hs, Initial residual = 0.0037562022, Final residual = 5.2493501e-07, No Iterations 2
T gas min/max   = 299.08409, 300.26559
DICPCG:  Solving for Ts, Initial residual = 1.3604065e-05, Final residual = 9.4420766e-10, No Iterations 10
T solid min/max   = 300.02678, 300.02871
Solving pEqn
Min,max Uest = 0, 18.544133
GAMG:  Solving for p, Initial residual = 0.0047803115, Final residual = 0.00016768913, No Iterations 2
Min,max p = 100000, 102270.07
time step continuity errors : sum local = 4.4561794e-06, global = -2.1339256e-06, cumulative = 0.00012242053
Min,max U = 0, 18.538215
Solving pEqn
Min,max Uest = 0, 18.544045
GAMGPCG:  Solving for p, Initial residual = 0.00083585574, Final residual = 1.0983166e-09, No Iterations 5
Min,max p = 100000, 102271.44
time step continuity errors : sum local = 3.508672e-07, global = -1.1970437e-07, cumulative = 0.00012230083
Min,max U = 0, 18.538128
ExecutionTime = 30.43 s  ClockTime = 62 s

Courant Number mean: 0.23278631 max: 0.49584416
deltaT = 1.3888889e-05
Time = 0.0624583

Correcting burningSolid
diagonal:  Solving for alphaGas, Initial residual = 0, Final residual = 0, No Iterations 0
Min/Max Gas Transfer Weights: 0, 1.2306477e-06
Min/Max Solid Transfer Weights: 0, 5.8631842e-07
Solving UEqn
Min,max U = 0, 18.538128
DILUPBiCG:  Solving for N2, Initial residual = 0, Final residual = 0, No Iterations 0
DILUPBiCG:  Solving for EMg, Initial residual = 0.00077027054, Final residual = 9.9780718e-08, No Iterations 2
Min,max for N2 = 0, 0
Min,max for EMs = 0, 1
Min,max for EMg = 0, 1
DILUPBiCG:  Solving for hs, Initial residual = 0.0037855892, Final residual = 5.2367831e-07, No Iterations 2
T gas min/max   = 299.08374, 300.26554
DICPCG:  Solving for Ts, Initial residual = 1.3522677e-05, Final residual = 9.3878438e-10, No Iterations 10
T solid min/max   = 300.02673, 300.02865
Solving pEqn
Min,max Uest = 0, 18.544099
GAMG:  Solving for p, Initial residual = 0.0052008396, Final residual = 0.00016619162, No Iterations 2
Min,max p = 100000, 102269.4
time step continuity errors : sum local = 4.9953821e-06, global = -2.5147395e-06, cumulative = 0.00011978609
Min,max U = 0, 18.538268
Solving pEqn
Min,max Uest = 0, 18.544016
GAMGPCG:  Solving for p, Initial residual = 0.00083725344, Final residual = 1.0902622e-09, No Iterations 5
Min,max p = 100000, 102270.75
time step continuity errors : sum local = 3.4968738e-07, global = -1.2354091e-07, cumulative = 0.00011966255
Min,max U = 0, 18.538183
ExecutionTime = 31.37 s  ClockTime = 65 s

Courant Number mean: 0.23267531 max: 0.49583495
deltaT = 1.3888889e-05
Time = 0.0624722

Correcting burningSolid
diagonal:  Solving for alphaGas, Initial residual = 0, Final residual = 0, No Iterations 0
Min/Max Gas Transfer Weights: 0, 1.2306477e-06
Min/Max Solid Transfer Weights: 0, 5.8631842e-07
Solving UEqn
Min,max U = 0, 18.538183
DILUPBiCG:  Solving for N2, Initial residual = 0, Final residual = 0, No Iterations 0
DILUPBiCG:  Solving for EMg, Initial residual = 0.00077785008, Final residual = 1.0048219e-07, No Iterations 2
Min,max for N2 = 0, 0
Min,max for EMs = 0, 1
Min,max for EMg = 0, 1
DILUPBiCG:  Solving for hs, Initial residual = 0.0038192345, Final residual = 5.2377692e-07, No Iterations 2
T gas min/max   = 299.08339, 300.26569
DICPCG:  Solving for Ts, Initial residual = 1.3436291e-05, Final residual = 9.3297156e-10, No Iterations 10
T solid min/max   = 300.02668, 300.0286
Solving pEqn
Min,max Uest = 0, 18.544072
GAMG:  Solving for p, Initial residual = 0.0056423156, Final residual = 0.00016602575, No Iterations 2
Min,max p = 100000, 102268.7
time step continuity errors : sum local = 5.5191805e-06, global = -2.8937257e-06, cumulative = 0.00011676882
Min,max U = 0, 18.538341
Solving pEqn
Min,max Uest = 0, 18.543994
GAMGPCG:  Solving for p, Initial residual = 0.00083779974, Final residual = 1.0923134e-09, No Iterations 5
Min,max p = 100000, 102270.02
time step continuity errors : sum local = 3.4951077e-07, global = -1.2716946e-07, cumulative = 0.00011664165
Min,max U = 0, 18.538261
ExecutionTime = 32.49 s  ClockTime = 67 s

Courant Number mean: 0.23256774 max: 0.4958296
deltaT = 1.3888889e-05
Time = 0.0624861

Correcting burningSolid
diagonal:  Solving for alphaGas, Initial residual = 0, Final residual = 0, No Iterations 0
Min/Max Gas Transfer Weights: 0, 1.2306477e-06
Min/Max Solid Transfer Weights: 0, 5.8631842e-07
Solving UEqn
Min,max U = 0, 18.538261
DILUPBiCG:  Solving for N2, Initial residual = 0, Final residual = 0, No Iterations 0
DILUPBiCG:  Solving for EMg, Initial residual = 0.00078496358, Final residual = 1.0105972e-07, No Iterations 2
Min,max for N2 = 0, 0
Min,max for EMs = 0, 1
Min,max for EMg = 0, 1
DILUPBiCG:  Solving for hs, Initial residual = 0.0038574944, Final residual = 5.248656e-07, No Iterations 2
T gas min/max   = 299.08304, 300.26574
DICPCG:  Solving for Ts, Initial residual = 1.334504e-05, Final residual = 9.2691321e-10, No Iterations 10
T solid min/max   = 300.02664, 300.02854
Solving pEqn
Min,max Uest = 0, 18.544075
GAMG:  Solving for p, Initial residual = 0.0060882711, Final residual = 0.00016698256, No Iterations 2
Min,max p = 100000, 102267.95
time step continuity errors : sum local = 6.0259049e-06, global = -3.2705503e-06, cumulative = 0.0001133711
Min,max U = 0, 18.538459
Solving pEqn
Min,max Uest = 0, 18.544002
GAMGPCG:  Solving for p, Initial residual = 0.00083328952, Final residual = 1.0924092e-09, No Iterations 5
Min,max p = 100000, 102269.23
time step continuity errors : sum local = 3.4956182e-07, global = -1.3061188e-07, cumulative = 0.00011324049
Min,max U = 0, 18.538384
ExecutionTime = 33.37 s  ClockTime = 69 s

Courant Number mean: 0.2324637 max: 0.49582741
deltaT = 1.3888889e-05
Time = 0.0625

Correcting burningSolid
diagonal:  Solving for alphaGas, Initial residual = 0, Final residual = 0, No Iterations 0
Min/Max Gas Transfer Weights: 0, 1.2306477e-06
Min/Max Solid Transfer Weights: 0, 5.8631842e-07
Solving UEqn
Min,max U = 0, 18.538384
DILUPBiCG:  Solving for N2, Initial residual = 0, Final residual = 0, No Iterations 0
DILUPBiCG:  Solving for EMg, Initial residual = 0.00079177598, Final residual = 1.0132567e-07, No Iterations 2
Min,max for N2 = 0, 0
Min,max for EMs = 0, 1
Min,max for EMg = 0, 1
DILUPBiCG:  Solving for hs, Initial residual = 0.0039005703, Final residual = 5.2626413e-07, No Iterations 2
T gas min/max   = 299.08269, 300.26568
DICPCG:  Solving for Ts, Initial residual = 1.3249114e-05, Final residual = 9.2066322e-10, No Iterations 10
T solid min/max   = 300.02659, 300.02849
Solving pEqn
Min,max Uest = 0, 18.544127
GAMG:  Solving for p, Initial residual = 0.0064961255, Final residual = 0.00016848882, No Iterations 2
Min,max p = 100000, 102267.16
time step continuity errors : sum local = 6.5143494e-06, global = -3.6447985e-06, cumulative = 0.00010959569
Min,max U = 0, 18.538639
Solving pEqn
Min,max Uest = 0, 18.544061
GAMGPCG:  Solving for p, Initial residual = 0.00083782505, Final residual = 1.0966013e-09, No Iterations 5
Min,max p = 100000, 102268.43
time step continuity errors : sum local = 3.5044286e-07, global = -1.3395613e-07, cumulative = 0.00010946173
Min,max U = 0, 18.538571
ExecutionTime = 34.31 s  ClockTime = 71 s

Courant Number mean: 0.23236171 max: 0.49582848
deltaT = 1.3888889e-05
Time = 0.0625139

Correcting burningSolid
diagonal:  Solving for alphaGas, Initial residual = 0, Final residual = 0, No Iterations 0
Min/Max Gas Transfer Weights: 0, 1.2306477e-06
Min/Max Solid Transfer Weights: 0, 5.8631842e-07
Solving UEqn
Min,max U = 0, 18.538571
DILUPBiCG:  Solving for N2, Initial residual = 0, Final residual = 0, No Iterations 0
DILUPBiCG:  Solving for EMg, Initial residual = 0.00079869984, Final residual = 1.0157489e-07, No Iterations 2
Min,max for N2 = 0, 0
Min,max for EMs = 0, 1
Min,max for EMg = 0, 1
DILUPBiCG:  Solving for hs, Initial residual = 0.0039480426, Final residual = 5.2787119e-07, No Iterations 2
T gas min/max   = 299.08235, 300.26551
DICPCG:  Solving for Ts, Initial residual = 1.3148723e-05, Final residual = 9.1398322e-10, No Iterations 10
T solid min/max   = 300.02655, 300.02843
Solving pEqn
Min,max Uest = 0, 18.544248
GAMG:  Solving for p, Initial residual = 0.0068872464, Final residual = 0.00017045721, No Iterations 2
Min,max p = 100000, 102266.33
time step continuity errors : sum local = 6.9837588e-06, global = -4.0163584e-06, cumulative = 0.00010544538
Min,max U = 0, 18.5389
Solving pEqn
Min,max Uest = 0, 18.544189
GAMGPCG:  Solving for p, Initial residual = 0.0008459618, Final residual = 1.0898973e-09, No Iterations 5
Min,max p = 100000, 102267.58
time step continuity errors : sum local = 3.5214236e-07, global = -1.3703882e-07, cumulative = 0.00010530834
Min,max U = 0, 18.53884
ExecutionTime = 35.4 s  ClockTime = 74 s

Courant Number mean: 0.23226139 max: 0.49583287
deltaT = 1.3888889e-05
Time = 0.0625278

Correcting burningSolid
diagonal:  Solving for alphaGas, Initial residual = 0, Final residual = 0, No Iterations 0
Min/Max Gas Transfer Weights: 0, 1.2306477e-06
Min/Max Solid Transfer Weights: 0, 5.8631842e-07
Solving UEqn
Min,max U = 0, 18.53884
DILUPBiCG:  Solving for N2, Initial residual = 0, Final residual = 0, No Iterations 0
DILUPBiCG:  Solving for EMg, Initial residual = 0.00080565252, Final residual = 1.0177959e-07, No Iterations 2
Min,max for N2 = 0, 0
Min,max for EMs = 0, 1
Min,max for EMg = 0, 1
DILUPBiCG:  Solving for hs, Initial residual = 0.0040008853, Final residual = 5.302544e-07, No Iterations 2
T gas min/max   = 299.08187, 300.26569
DICPCG:  Solving for Ts, Initial residual = 1.3043982e-05, Final residual = 9.0699876e-10, No Iterations 10
T solid min/max   = 300.0265, 300.02838
Solving pEqn
Min,max Uest = 0, 18.544455
GAMG:  Solving for p, Initial residual = 0.0072615338, Final residual = 0.00017270868, No Iterations 2
Min,max p = 100000, 102265.47
time step continuity errors : sum local = 7.4333813e-06, global = -4.3846919e-06, cumulative = 0.00010092365
Min,max U = 0, 18.539258
Solving pEqn
Min,max Uest = 0, 18.544404
GAMGPCG:  Solving for p, Initial residual = 0.00085221622, Final residual = 1.0871471e-09, No Iterations 5
Min,max p = 100000, 102266.69
time step continuity errors : sum local = 3.5368132e-07, global = -1.3999202e-07, cumulative = 0.00010078365
Min,max U = 0, 18.539208
ExecutionTime = 36.43 s  ClockTime = 76 s

Courant Number mean: 0.23216406 max: 0.49584067
deltaT = 1.3888889e-05
Time = 0.0625417

Correcting burningSolid
diagonal:  Solving for alphaGas, Initial residual = 0, Final residual = 0, No Iterations 0
Min/Max Gas Transfer Weights: 0, 1.2306477e-06
Min/Max Solid Transfer Weights: 0, 5.8631842e-07
Solving UEqn
Min,max U = 0, 18.539208
DILUPBiCG:  Solving for N2, Initial residual = 0, Final residual = 0, No Iterations 0
DILUPBiCG:  Solving for EMg, Initial residual = 0.00081217725, Final residual = 1.02068e-07, No Iterations 2
Min,max for N2 = 0, 0
Min,max for EMs = 0, 1
Min,max for EMg = 0, 1
DILUPBiCG:  Solving for hs, Initial residual = 0.0040558365, Final residual = 5.3282907e-07, No Iterations 2
T gas min/max   = 299.08128, 300.26585
DICPCG:  Solving for Ts, Initial residual = 1.2934996e-05, Final residual = 8.996487e-10, No Iterations 10
T solid min/max   = 300.02646, 300.02832
Solving pEqn
Min,max Uest = 0, 18.544764
GAMG:  Solving for p, Initial residual = 0.0076298604, Final residual = 0.00017536936, No Iterations 2
Min,max p = 100000, 102264.58
time step continuity errors : sum local = 7.8624648e-06, global = -4.7493858e-06, cumulative = 9.6034268e-05
Min,max U = 0, 18.53973
Solving pEqn
Min,max Uest = 0, 18.544723
GAMGPCG:  Solving for p, Initial residual = 0.0008571254, Final residual = 1.0877233e-09, No Iterations 5
Min,max p = 100000, 102265.76
time step continuity errors : sum local = 3.5553134e-07, global = -1.4283949e-07, cumulative = 9.5891428e-05
Min,max U = 0, 18.539692
ExecutionTime = 37.39 s  ClockTime = 78 s

Courant Number mean: 0.2320712 max: 0.4958521
deltaT = 1.3888889e-05
Time = 0.0625556

Correcting burningSolid
diagonal:  Solving for alphaGas, Initial residual = 0, Final residual = 0, No Iterations 0
Min/Max Gas Transfer Weights: 0, 1.2306477e-06
Min/Max Solid Transfer Weights: 0, 5.8631842e-07
Solving UEqn
Min,max U = 0, 18.539692
DILUPBiCG:  Solving for N2, Initial residual = 0, Final residual = 0, No Iterations 0
DILUPBiCG:  Solving for EMg, Initial residual = 0.00081791387, Final residual = 1.0251026e-07, No Iterations 2
Min,max for N2 = 0, 0
Min,max for EMs = 0, 1
Min,max for EMg = 0, 1
DILUPBiCG:  Solving for hs, Initial residual = 0.0041117265, Final residual = 5.3554137e-07, No Iterations 2
T gas min/max   = 299.08067, 300.26591
DICPCG:  Solving for Ts, Initial residual = 1.2821953e-05, Final residual = 8.9197714e-10, No Iterations 10
T solid min/max   = 300.02642, 300.02827
Solving pEqn
Min,max Uest = 0, 18.545191
GAMG:  Solving for p, Initial residual = 0.0079963479, Final residual = 0.00017807065, No Iterations 2
Min,max p = 100000, 102263.66
time step continuity errors : sum local = 8.2702561e-06, global = -5.1103574e-06, cumulative = 9.0781071e-05
Min,max U = 0, 18.54033
Solving pEqn
Min,max Uest = 0, 18.545161
GAMGPCG:  Solving for p, Initial residual = 0.00086101551, Final residual = 1.0835336e-09, No Iterations 5
Min,max p = 100000, 102264.82
time step continuity errors : sum local = 3.5753263e-07, global = -1.4527234e-07, cumulative = 9.0635799e-05
Min,max U = 0, 18.540304
ExecutionTime = 38.34 s  ClockTime = 81 s

Courant Number mean: 0.23198152 max: 0.49586745
deltaT = 1.3888889e-05
Time = 0.0625694

Correcting burningSolid
diagonal:  Solving for alphaGas, Initial residual = 0, Final residual = 0, No Iterations 0
Min/Max Gas Transfer Weights: 0, 1.2306477e-06
Min/Max Solid Transfer Weights: 0, 5.8631842e-07
Solving UEqn
Min,max U = 0, 18.540304
DILUPBiCG:  Solving for N2, Initial residual = 0, Final residual = 0, No Iterations 0
DILUPBiCG:  Solving for EMg, Initial residual = 0.00082347197, Final residual = 1.0342458e-07, No Iterations 2
Min,max for N2 = 0, 0
Min,max for EMs = 0, 1
Min,max for EMg = 0, 1
DILUPBiCG:  Solving for hs, Initial residual = 0.0041691429, Final residual = 5.3870963e-07, No Iterations 2
T gas min/max   = 299.08008, 300.26587
DICPCG:  Solving for Ts, Initial residual = 1.270508e-05, Final residual = 8.8420204e-10, No Iterations 10
T solid min/max   = 300.02637, 300.02822
Solving pEqn
Min,max Uest = 0, 18.54575
GAMG:  Solving for p, Initial residual = 0.0083118463, Final residual = 0.00018092819, No Iterations 2
Min,max p = 100000, 102262.72
time step continuity errors : sum local = 8.6567534e-06, global = -5.4670007e-06, cumulative = 8.5168798e-05
Min,max U = 0, 18.541072
Solving pEqn
Min,max Uest = 0, 18.545734
GAMGPCG:  Solving for p, Initial residual = 0.00085962315, Final residual = 1.0728796e-09, No Iterations 5
Min,max p = 100000, 102263.85
time step continuity errors : sum local = 3.5938574e-07, global = -1.4744115e-07, cumulative = 8.5021357e-05
Min,max U = 0, 18.541061
ExecutionTime = 39.29 s  ClockTime = 83 s

Courant Number mean: 0.23189535 max: 0.49588716
deltaT = 1.3888889e-05
Time = 0.0625833

Correcting burningSolid
diagonal:  Solving for alphaGas, Initial residual = 0, Final residual = 0, No Iterations 0
Min/Max Gas Transfer Weights: 0, 1.2306477e-06
Min/Max Solid Transfer Weights: 0, 5.8631842e-07
Solving UEqn
Min,max U = 0, 18.541061
DILUPBiCG:  Solving for N2, Initial residual = 0, Final residual = 0, No Iterations 0
DILUPBiCG:  Solving for EMg, Initial residual = 0.00082888143, Final residual = 1.0446597e-07, No Iterations 2
Min,max for N2 = 0, 0
Min,max for EMs = 0, 1
Min,max for EMg = 0, 1
DILUPBiCG:  Solving for hs, Initial residual = 0.0042286253, Final residual = 5.4123139e-07, No Iterations 2
T gas min/max   = 299.0795, 300.26573
DICPCG:  Solving for Ts, Initial residual = 1.2584574e-05, Final residual = 8.7668597e-10, No Iterations 10
T solid min/max   = 300.02633, 300.02817
Solving pEqn
Min,max Uest = 0, 18.546457
GAMG:  Solving for p, Initial residual = 0.008614488, Final residual = 0.00018332353, No Iterations 2
Min,max p = 100000, 102261.75
time step continuity errors : sum local = 9.022013e-06, global = -5.8189602e-06, cumulative = 7.9202397e-05
Min,max U = 0, 18.541969
Solving pEqn
Min,max Uest = 0, 18.546454
GAMGPCG:  Solving for p, Initial residual = 0.00085127202, Final residual = 1.0737694e-09, No Iterations 5
Min,max p = 100000, 102262.85
time step continuity errors : sum local = 3.5972321e-07, global = -1.4925167e-07, cumulative = 7.9053145e-05
Min,max U = 0, 18.541973
ExecutionTime = 40.28 s  ClockTime = 85 s

Courant Number mean: 0.2318123 max: 0.49591172
deltaT = 1.3888889e-05
Time = 0.0625972

Correcting burningSolid
diagonal:  Solving for alphaGas, Initial residual = 0, Final residual = 0, No Iterations 0
Min/Max Gas Transfer Weights: 0, 1.2306477e-06
Min/Max Solid Transfer Weights: 0, 5.8631842e-07
Solving UEqn
Min,max U = 0, 18.541973
DILUPBiCG:  Solving for N2, Initial residual = 0, Final residual = 0, No Iterations 0
DILUPBiCG:  Solving for EMg, Initial residual = 0.00083441399, Final residual = 1.0551597e-07, No Iterations 2
Min,max for N2 = 0, 0
Min,max for EMs = 0, 1
Min,max for EMg = 0, 1
DILUPBiCG:  Solving for hs, Initial residual = 0.0042866174, Final residual = 5.4270498e-07, No Iterations 2
T gas min/max   = 299.07893, 300.26585
DICPCG:  Solving for Ts, Initial residual = 1.2460685e-05, Final residual = 8.687438e-10, No Iterations 10
T solid min/max   = 300.02629, 300.02811
Solving pEqn
Min,max Uest = 0, 18.547323
GAMG:  Solving for p, Initial residual = 0.0088937182, Final residual = 0.00018581937, No Iterations 2
Min,max p = 100000, 102260.76
time step continuity errors : sum local = 9.3654137e-06, global = -6.1655893e-06, cumulative = 7.2887556e-05
Min,max U = 0, 18.543033
Solving pEqn
Min,max Uest = 0, 18.547334
GAMGPCG:  Solving for p, Initial residual = 0.00085566608, Final residual = 1.0670168e-09, No Iterations 5
Min,max p = 100000, 102261.85
time step continuity errors : sum local = 3.6115522e-07, global = -1.5087699e-07, cumulative = 7.2736679e-05
Min,max U = 0, 18.543054
ExecutionTime = 41.61 s  ClockTime = 88 s

Courant Number mean: 0.23173206 max: 0.49594167
deltaT = 1.3888889e-05
Time = 0.0626111

Correcting burningSolid
diagonal:  Solving for alphaGas, Initial residual = 0, Final residual = 0, No Iterations 0
Min/Max Gas Transfer Weights: 0, 1.2306477e-06
Min/Max Solid Transfer Weights: 0, 5.8631842e-07
Solving UEqn
Min,max U = 0, 18.543054
DILUPBiCG:  Solving for N2, Initial residual = 0, Final residual = 0, No Iterations 0
DILUPBiCG:  Solving for EMg, Initial residual = 0.00083987553, Final residual = 1.0646794e-07, No Iterations 2
Min,max for N2 = 0, 0
Min,max for EMs = 0, 1
Min,max for EMg = 0, 1
DILUPBiCG:  Solving for hs, Initial residual = 0.0043423389, Final residual = 5.429626e-07, No Iterations 2
T gas min/max   = 299.07837, 300.26607
DICPCG:  Solving for Ts, Initial residual = 1.2333657e-05, Final residual = 8.6022691e-10, No Iterations 10
T solid min/max   = 300.02625, 300.02806
Solving pEqn
Min,max Uest = 0, 18.548361
GAMG:  Solving for p, Initial residual = 0.0091596053, Final residual = 0.00018778594, No Iterations 2
Min,max p = 100000, 102259.77
time step continuity errors : sum local = 9.6871784e-06, global = -6.5067482e-06, cumulative = 6.622993e-05
Min,max U = 0, 18.544276
Solving pEqn
Min,max Uest = 0, 18.548388
GAMGPCG:  Solving for p, Initial residual = 0.00085872634, Final residual = 1.0617437e-09, No Iterations 5
Min,max p = 100000, 102260.82
time step continuity errors : sum local = 3.621138e-07, global = -1.5197159e-07, cumulative = 6.6077959e-05
Min,max U = 0, 18.544315
ExecutionTime = 42.6 s  ClockTime = 90 s

Courant Number mean: 0.23165689 max: 0.4959775
deltaT = 1.3888889e-05
Time = 0.062625

Correcting burningSolid
diagonal:  Solving for alphaGas, Initial residual = 0, Final residual = 0, No Iterations 0
Min/Max Gas Transfer Weights: 0, 1.2306477e-06
Min/Max Solid Transfer Weights: 0, 5.8631842e-07
Solving UEqn
Min,max U = 0, 18.544315
DILUPBiCG:  Solving for N2, Initial residual = 0, Final residual = 0, No Iterations 0
DILUPBiCG:  Solving for EMg, Initial residual = 0.00084447099, Final residual = 1.0703956e-07, No Iterations 2
Min,max for N2 = 0, 0
Min,max for EMs = 0, 1
Min,max for EMg = 0, 1
DILUPBiCG:  Solving for hs, Initial residual = 0.0043959379, Final residual = 5.424763e-07, No Iterations 2
T gas min/max   = 299.07784, 300.26619
DICPCG:  Solving for Ts, Initial residual = 1.2203768e-05, Final residual = 8.511964e-10, No Iterations 10
T solid min/max   = 300.02621, 300.02801
Solving pEqn
Min,max Uest = 0, 18.549583
GAMG:  Solving for p, Initial residual = 0.0094086168, Final residual = 0.00018969746, No Iterations 2
Min,max p = 100000, 102258.76
time step continuity errors : sum local = 9.9872066e-06, global = -6.8418253e-06, cumulative = 5.9236133e-05
Min,max U = 0, 18.545707
Solving pEqn
Min,max Uest = 0, 18.549626
GAMGPCG:  Solving for p, Initial residual = 0.00086313509, Final residual = 1.0452596e-09, No Iterations 5
Min,max p = 100000, 102259.78
time step continuity errors : sum local = 3.6339848e-07, global = -1.5265601e-07, cumulative = 5.9083477e-05
Min,max U = 0, 18.545765
ExecutionTime = 43.63 s  ClockTime = 92 s

Courant Number mean: 0.23158672 max: 0.49601967
deltaT = 1.3888889e-05
Time = 0.0626389

Correcting burningSolid
diagonal:  Solving for alphaGas, Initial residual = 0, Final residual = 0, No Iterations 0
Min/Max Gas Transfer Weights: 0, 1.2306477e-06
Min/Max Solid Transfer Weights: 0, 5.8631842e-07
Solving UEqn
Min,max U = 0, 18.545765
DILUPBiCG:  Solving for N2, Initial residual = 0, Final residual = 0, No Iterations 0
DILUPBiCG:  Solving for EMg, Initial residual = 0.00084895368, Final residual = 1.0759777e-07, No Iterations 2
Min,max for N2 = 0, 0
Min,max for EMs = 0, 1
Min,max for EMg = 0, 1
DILUPBiCG:  Solving for hs, Initial residual = 0.004447082, Final residual = 5.4121698e-07, No Iterations 2
T gas min/max   = 299.07712, 300.26621
DICPCG:  Solving for Ts, Initial residual = 1.207131e-05, Final residual = 8.4165087e-10, No Iterations 10
T solid min/max   = 300.02617, 300.02796
Solving pEqn
Min,max Uest = 0, 18.550997
GAMG:  Solving for p, Initial residual = 0.0096349063, Final residual = 0.0001913271, No Iterations 2
Min,max p = 100000, 102257.74
time step continuity errors : sum local = 1.0265706e-05, global = -7.1701379e-06, cumulative = 5.191334e-05
Min,max U = 0, 18.547336
Solving pEqn
Min,max Uest = 0, 18.551056
GAMGPCG:  Solving for p, Initial residual = 0.00086040599, Final residual = 1.035243e-09, No Iterations 5
Min,max p = 100000, 102258.74
time step continuity errors : sum local = 3.6371502e-07, global = -1.5310216e-07, cumulative = 5.1760237e-05
Min,max U = 0, 18.547412
ExecutionTime = 44.68 s  ClockTime = 94 s

Courant Number mean: 0.2315201 max: 0.49606853
deltaT = 1.3888889e-05
Time = 0.0626528

Correcting burningSolid
diagonal:  Solving for alphaGas, Initial residual = 0, Final residual = 0, No Iterations 0
Min/Max Gas Transfer Weights: 0, 1.2306477e-06
Min/Max Solid Transfer Weights: 0, 5.8631842e-07
Solving UEqn
Min,max U = 0, 18.547412
DILUPBiCG:  Solving for N2, Initial residual = 0, Final residual = 0, No Iterations 0
DILUPBiCG:  Solving for EMg, Initial residual = 0.00085313593, Final residual = 1.0872203e-07, No Iterations 2
Min,max for N2 = 0, 0
Min,max for EMs = 0, 1
Min,max for EMg = 0, 1
DILUPBiCG:  Solving for hs, Initial residual = 0.0044957411, Final residual = 5.3889583e-07, No Iterations 2
T gas min/max   = 299.07634, 300.26613
DICPCG:  Solving for Ts, Initial residual = 1.193656e-05, Final residual = 8.3212428e-10, No Iterations 10
T solid min/max   = 300.02614, 300.02791
Solving pEqn
Min,max Uest = 0, 18.55261
GAMG:  Solving for p, Initial residual = 0.0098582663, Final residual = 0.000193073, No Iterations 2
Min,max p = 100000, 102256.73
time step continuity errors : sum local = 1.0523057e-05, global = -7.4912407e-06, cumulative = 4.4268997e-05
Min,max U = 0, 18.549166
Solving pEqn
Min,max Uest = 0, 18.552686
GAMGPCG:  Solving for p, Initial residual = 0.0008639501, Final residual = 1.0297539e-09, No Iterations 5
Min,max p = 100000, 102257.69
time step continuity errors : sum local = 3.6442663e-07, global = -1.5324949e-07, cumulative = 4.4115747e-05
Min,max U = 0, 18.54926
ExecutionTime = 45.81 s  ClockTime = 97 s

Courant Number mean: 0.23145663 max: 0.49612433
deltaT = 1.3888889e-05
Time = 0.0626667

Correcting burningSolid
diagonal:  Solving for alphaGas, Initial residual = 0, Final residual = 0, No Iterations 0
Min/Max Gas Transfer Weights: 0, 1.2306477e-06
Min/Max Solid Transfer Weights: 0, 5.8631842e-07
Solving UEqn
Min,max U = 0, 18.54926
DILUPBiCG:  Solving for N2, Initial residual = 0, Final residual = 0, No Iterations 0
DILUPBiCG:  Solving for EMg, Initial residual = 0.00085663707, Final residual = 1.1045578e-07, No Iterations 2
Min,max for N2 = 0, 0
Min,max for EMs = 0, 1
Min,max for EMg = 0, 1
DILUPBiCG:  Solving for hs, Initial residual = 0.004542179, Final residual = 5.3568595e-07, No Iterations 2
T gas min/max   = 299.07559, 300.26649
DICPCG:  Solving for Ts, Initial residual = 1.1799784e-05, Final residual = 8.2236755e-10, No Iterations 10
T solid min/max   = 300.0261, 300.02786
Solving pEqn
Min,max Uest = 0, 18.554428
GAMG:  Solving for p, Initial residual = 0.010051164, Final residual = 0.00019463059, No Iterations 2
Min,max p = 100000, 102255.7
time step continuity errors : sum local = 1.0759632e-05, global = -7.8046585e-06, cumulative = 3.6311089e-05
Min,max U = 0, 18.551201
Solving pEqn
Min,max Uest = 0, 18.55452
GAMGPCG:  Solving for p, Initial residual = 0.00086287236, Final residual = 1.0257956e-09, No Iterations 5
Min,max p = 100000, 102256.65
time step continuity errors : sum local = 3.6446678e-07, global = -1.5312333e-07, cumulative = 3.6157965e-05
Min,max U = 0, 18.551313
ExecutionTime = 46.98 s  ClockTime = 99 s

Courant Number mean: 0.2313969 max: 0.49618718
deltaT = 1.3888889e-05
Time = 0.0626806

Correcting burningSolid
diagonal:  Solving for alphaGas, Initial residual = 0, Final residual = 0, No Iterations 0
Min/Max Gas Transfer Weights: 0, 1.2306477e-06
Min/Max Solid Transfer Weights: 0, 5.8631842e-07
Solving UEqn
Min,max U = 0, 18.551313
DILUPBiCG:  Solving for N2, Initial residual = 0, Final residual = 0, No Iterations 0
DILUPBiCG:  Solving for EMg, Initial residual = 0.00086017477, Final residual = 1.1213512e-07, No Iterations 2
Min,max for N2 = 0, 0
Min,max for EMs = 0, 1
Min,max for EMg = 0, 1
DILUPBiCG:  Solving for hs, Initial residual = 0.0045864937, Final residual = 5.3101265e-07, No Iterations 2
T gas min/max   = 299.07487, 300.26679
DICPCG:  Solving for Ts, Initial residual = 1.1661262e-05, Final residual = 8.1245726e-10, No Iterations 10
T solid min/max   = 300.02606, 300.02781
Solving pEqn
Min,max Uest = 0, 18.556453
GAMG:  Solving for p, Initial residual = 0.010226472, Final residual = 0.00019593798, No Iterations 2
Min,max p = 100000, 102257.73
time step continuity errors : sum local = 1.0975506e-05, global = -8.1100375e-06, cumulative = 2.8047928e-05
Min,max U = 0, 18.553441
Solving pEqn
Min,max Uest = 0, 18.556561
GAMGPCG:  Solving for p, Initial residual = 0.00086174643, Final residual = 1.0281944e-09, No Iterations 5
Min,max p = 100000, 102257.74
time step continuity errors : sum local = 3.6442642e-07, global = -1.5285063e-07, cumulative = 2.7895077e-05
Min,max U = 0, 18.553572
ExecutionTime = 47.87 s  ClockTime = 101 s

Courant Number mean: 0.23134268 max: 0.49625711
deltaT = 1.3888889e-05
Time = 0.0626944

Correcting burningSolid
diagonal:  Solving for alphaGas, Initial residual = 0, Final residual = 0, No Iterations 0
Min/Max Gas Transfer Weights: 0, 1.2306477e-06
Min/Max Solid Transfer Weights: 0, 5.8631842e-07
Solving UEqn
Min,max U = 0, 18.553572
DILUPBiCG:  Solving for N2, Initial residual = 0, Final residual = 0, No Iterations 0
DILUPBiCG:  Solving for EMg, Initial residual = 0.00086327137, Final residual = 1.1347544e-07, No Iterations 2
Min,max for N2 = 0, 0
Min,max for EMs = 0, 1
Min,max for EMg = 0, 1
DILUPBiCG:  Solving for hs, Initial residual = 0.0046282309, Final residual = 5.2454902e-07, No Iterations 2
T gas min/max   = 299.07418, 300.267
DICPCG:  Solving for Ts, Initial residual = 1.1521268e-05, Final residual = 8.0267789e-10, No Iterations 10
T solid min/max   = 300.02603, 300.02777
Solving pEqn
Min,max Uest = 0, 18.558685
GAMG:  Solving for p, Initial residual = 0.010387808, Final residual = 0.00019713096, No Iterations 2
Min,max p = 100000, 102259.82
[...]
Min,max for EMg = 0, 1
DILUPBiCG:  Solving for hs, Initial residual = 0.0082478301, Final residual = 4.5621895e-07, No Iterations 2
T gas min/max   = 299.44321, 300.20561
DICPCG:  Solving for Ts, Initial residual = 1.4773641e-05, Final residual = 9.5274389e-10, No Iterations 10
T solid min/max   = 300.01635, 300.0184
Solving pEqn
Min,max Uest = 0, 18.581199
GAMG:  Solving for p, Initial residual = 0.010213475, Final residual = 0.00017980296, No Iterations 2
Min,max p = 100000, 102207.3
time step continuity errors : sum local = 1.1148741e-05, global = -9.5205285e-06, cumulative = 0.00083001801
Min,max U = 0, 18.568761
Solving pEqn
Min,max Uest = 0, 18.580956
GAMGPCG:  Solving for p, Initial residual = 0.00084181492, Final residual = 1.3891386e-09, No Iterations 5
Min,max p = 100000, 102208.61
time step continuity errors : sum local = 3.6349552e-07, global = -1.5408909e-07, cumulative = 0.00082986392
Min,max U = 0, 18.568389
ExecutionTime = 271.54 s  ClockTime = 575 s

Courant Number mean: 0.22463748 max: 0.48299741
deltaT = 1.3888889e-05
Time = 0.0660139

Correcting burningSolid
diagonal:  Solving for alphaGas, Initial residual = 0, Final residual = 0, No Iterations 0
Min/Max Gas Transfer Weights: 0, 1.2306477e-06
Min/Max Solid Transfer Weights: 0, 5.8631842e-07
Solving UEqn
Min,max U = 0, 18.568389
DILUPBiCG:  Solving for N2, Initial residual = 0, Final residual = 0, No Iterations 0
DILUPBiCG:  Solving for EMg, Initial residual = 0.00087725049, Final residual = 9.8682336e-08, No Iterations 2
Min,max for N2 = 0, 0
Min,max for EMs = 0, 1
Min,max for EMg = 0, 1
DILUPBiCG:  Solving for hs, Initial residual = 0.0087032267, Final residual = 5.1707156e-07, No Iterations 2
T gas min/max   = 299.44928, 300.20538
DICPCG:  Solving for Ts, Initial residual = 1.5161692e-05, Final residual = 4.5328576e-10, No Iterations 11
T solid min/max   = 300.0163, 300.01833
Solving pEqn
Min,max Uest = 0, 18.575867
GAMG:  Solving for p, Initial residual = 0.011303608, Final residual = 0.00020468845, No Iterations 2
Min,max p = 100000, 102206.46
time step continuity errors : sum local = 1.1992439e-05, global = -1.0249631e-05, cumulative = 0.00081961429
Min,max U = 0, 18.563705
Solving pEqn
Min,max Uest = 0, 18.575212
GAMGPCG:  Solving for p, Initial residual = 0.0009268023, Final residual = 1.7676665e-09, No Iterations 5
Min,max p = 100000, 102207.82
time step continuity errors : sum local = 3.922262e-07, global = -1.6976974e-07, cumulative = 0.00081944452
Min,max U = 0, 18.563056
ExecutionTime = 272.51 s  ClockTime = 578 s

Courant Number mean: 0.23106232 max: 0.49695909
deltaT = 1.3888889e-05
Time = 0.0660278

Correcting burningSolid
diagonal:  Solving for alphaGas, Initial residual = 0, Final residual = 0, No Iterations 0
Min/Max Gas Transfer Weights: 0, 1.2306477e-06
Min/Max Solid Transfer Weights: 0, 5.8631842e-07
Solving UEqn
Min,max U = 0, 18.563056
DILUPBiCG:  Solving for N2, Initial residual = 0, Final residual = 0, No Iterations 0
DILUPBiCG:  Solving for EMg, Initial residual = 0.00088783899, Final residual = 9.8443165e-08, No Iterations 2
Min,max for N2 = 0, 0
Min,max for EMs = 0, 1
Min,max for EMg = 0, 1
DILUPBiCG:  Solving for hs, Initial residual = 0.0089189349, Final residual = 5.3299822e-07, No Iterations 2
T gas min/max   = 299.45554, 300.20504
DICPCG:  Solving for Ts, Initial residual = 1.4867332e-05, Final residual = 4.3626057e-10, No Iterations 11
T solid min/max   = 300.01625, 300.01827
Solving pEqn
Min,max Uest = 0, 18.569984
GAMG:  Solving for p, Initial residual = 0.011518752, Final residual = 0.00020564529, No Iterations 2
Min,max p = 100000, 102205.68
time step continuity errors : sum local = 1.2492895e-05, global = -1.0705524e-05, cumulative = 0.00080873899
Min,max U = 0, 18.55829
Solving pEqn
Min,max Uest = 0, 18.569417
GAMGPCG:  Solving for p, Initial residual = 0.00092938009, Final residual = 1.7734368e-09, No Iterations 5
Min,max p = 100000, 102206.99
time step continuity errors : sum local = 3.937642e-07, global = -1.7030961e-07, cumulative = 0.00080856868
Min,max U = 0, 18.557739
ExecutionTime = 273.48 s  ClockTime = 580 s

Courant Number mean: 0.23095428 max: 0.49685181
deltaT = 1.3888889e-05
Time = 0.0660417

Correcting burningSolid
diagonal:  Solving for alphaGas, Initial residual = 0, Final residual = 0, No Iterations 0
Min/Max Gas Transfer Weights: 0, 1.2306477e-06
Min/Max Solid Transfer Weights: 0, 5.8631842e-07
Solving UEqn
Min,max U = 0, 18.557739
DILUPBiCG:  Solving for N2, Initial residual = 0, Final residual = 0, No Iterations 0
DILUPBiCG:  Solving for EMg, Initial residual = 0.00089693066, Final residual = 9.8260141e-08, No Iterations 2
Min,max for N2 = 0, 0
Min,max for EMs = 0, 1
Min,max for EMg = 0, 1
DILUPBiCG:  Solving for hs, Initial residual = 0.0091294447, Final residual = 5.4651596e-07, No Iterations 2
T gas min/max   = 299.4619, 300.20475
DICPCG:  Solving for Ts, Initial residual = 1.4733025e-05, Final residual = 4.3128204e-10, No Iterations 11
T solid min/max   = 300.0162, 300.01821
Solving pEqn
Min,max Uest = 0, 18.564426
GAMG:  Solving for p, Initial residual = 0.011936622, Final residual = 0.00020858112, No Iterations 2
Min,max p = 100000, 102204.87
time step continuity errors : sum local = 1.2970338e-05, global = -1.1153122e-05, cumulative = 0.00079741556
Min,max U = 0, 18.553126
Solving pEqn
Min,max Uest = 0, 18.563956
GAMGPCG:  Solving for p, Initial residual = 0.00093061842, Final residual = 1.7652774e-09, No Iterations 5
Min,max p = 100000, 102206.16
time step continuity errors : sum local = 3.9473961e-07, global = -1.7039111e-07, cumulative = 0.00079724517
Min,max U = 0, 18.552598
ExecutionTime = 274.4 s  ClockTime = 581 s

Courant Number mean: 0.23084978 max: 0.49676347
deltaT = 1.3888889e-05
Time = 0.0660556

Correcting burningSolid
diagonal:  Solving for alphaGas, Initial residual = 0, Final residual = 0, No Iterations 0
Min/Max Gas Transfer Weights: 0, 1.2306477e-06
Min/Max Solid Transfer Weights: 0, 5.8631842e-07
Solving UEqn
Min,max U = 0, 18.552598
DILUPBiCG:  Solving for N2, Initial residual = 0, Final residual = 0, No Iterations 0
DILUPBiCG:  Solving for EMg, Initial residual = 0.00090489924, Final residual = 9.8361041e-08, No Iterations 2
Min,max for N2 = 0, 0
Min,max for EMs = 0, 1
Min,max for EMg = 0, 1
DILUPBiCG:  Solving for hs, Initial residual = 0.0093334864, Final residual = 5.6301994e-07, No Iterations 2
T gas min/max   = 299.46823, 300.20465
DICPCG:  Solving for Ts, Initial residual = 1.4595827e-05, Final residual = 4.2676491e-10, No Iterations 11
T solid min/max   = 300.01615, 300.01815
Solving pEqn
Min,max Uest = 0, 18.5593
GAMG:  Solving for p, Initial residual = 0.012356918, Final residual = 0.00021141707, No Iterations 2
Min,max p = 100000, 102204.06
time step continuity errors : sum local = 1.3425626e-05, global = -1.1593407e-05, cumulative = 0.00078565176
Min,max U = 0, 18.548196
Solving pEqn
Min,max Uest = 0, 18.55892
GAMGPCG:  Solving for p, Initial residual = 0.00093089978, Final residual = 1.7647998e-09, No Iterations 5
Min,max p = 100000, 102205.32
time step continuity errors : sum local = 3.9531575e-07, global = -1.7017324e-07, cumulative = 0.00078548159
Min,max U = 0, 18.547726
ExecutionTime = 275.3 s  ClockTime = 583 s

Courant Number mean: 0.2307489 max: 0.49668543
deltaT = 1.3888889e-05
Time = 0.0660694

Correcting burningSolid
diagonal:  Solving for alphaGas, Initial residual = 0, Final residual = 0, No Iterations 0
Min/Max Gas Transfer Weights: 0, 1.2306477e-06
Min/Max Solid Transfer Weights: 0, 5.8631842e-07
Solving UEqn
Min,max U = 0, 18.547726
DILUPBiCG:  Solving for N2, Initial residual = 0, Final residual = 0, No Iterations 0
DILUPBiCG:  Solving for EMg, Initial residual = 0.00091251146, Final residual = 9.8367543e-08, No Iterations 2
Min,max for N2 = 0, 0
Min,max for EMs = 0, 1
Min,max for EMg = 0, 1
DILUPBiCG:  Solving for hs, Initial residual = 0.0095305506, Final residual = 5.7946837e-07, No Iterations 2
T gas min/max   = 299.47466, 300.20445
DICPCG:  Solving for Ts, Initial residual = 1.4459968e-05, Final residual = 4.2201971e-10, No Iterations 11
T solid min/max   = 300.01609, 300.01809
Solving pEqn
Min,max Uest = 0, 18.554414
GAMG:  Solving for p, Initial residual = 0.012782234, Final residual = 0.00063772486, No Iterations 1
Min,max p = 100000, 102203.58
time step continuity errors : sum local = 1.3801334e-05, global = -1.2340248e-05, cumulative = 0.00077314134
Min,max U = 0, 18.543454
Solving pEqn
Min,max Uest = 0, 18.55411
GAMGPCG:  Solving for p, Initial residual = 0.0011960171, Final residual = 1.2478602e-09, No Iterations 5
Min,max p = 100000, 102204.45
time step continuity errors : sum local = 6.2447287e-07, global = 1.4684847e-07, cumulative = 0.00077328819
Min,max U = 0, 18.543038
ExecutionTime = 276.17 s  ClockTime = 585 s

Courant Number mean: 0.2306546 max: 0.49661421
deltaT = 1.3888889e-05
Time = 0.0660833

Correcting burningSolid
diagonal:  Solving for alphaGas, Initial residual = 0, Final residual = 0, No Iterations 0
Min/Max Gas Transfer Weights: 0, 1.2306477e-06
Min/Max Solid Transfer Weights: 0, 5.8631842e-07
Solving UEqn
Min,max U = 0, 18.543038
DILUPBiCG:  Solving for N2, Initial residual = 0, Final residual = 0, No Iterations 0
DILUPBiCG:  Solving for EMg, Initial residual = 0.00091969085, Final residual = 9.8593437e-08, No Iterations 2
Min,max for N2 = 0, 0
Min,max for EMs = 0, 1
Min,max for EMg = 0, 1
DILUPBiCG:  Solving for hs, Initial residual = 0.0097194063, Final residual = 5.9638464e-07, No Iterations 2
T gas min/max   = 299.48108, 300.20416
DICPCG:  Solving for Ts, Initial residual = 1.4320751e-05, Final residual = 4.172209e-10, No Iterations 11
T solid min/max   = 300.01604, 300.01803
Solving pEqn
Min,max Uest = 0, 18.549745
GAMG:  Solving for p, Initial residual = 0.013169745, Final residual = 0.00064543732, No Iterations 1
Min,max p = 100000, 102202.75
time step continuity errors : sum local = 1.4207724e-05, global = -1.27651e-05, cumulative = 0.00076052309
Min,max U = 0, 18.538915
Solving pEqn
Min,max Uest = 0, 18.549519
GAMGPCG:  Solving for p, Initial residual = 0.0012075373, Final residual = 1.2626631e-09, No Iterations 5
Min,max p = 100000, 102203.6
time step continuity errors : sum local = 6.2889936e-07, global = 1.5083163e-07, cumulative = 0.00076067392
Min,max U = 0, 18.538566
ExecutionTime = 277.07 s  ClockTime = 587 s

Courant Number mean: 0.23056608 max: 0.49654904
deltaT = 1.3888889e-05
Time = 0.0660972

Correcting burningSolid
diagonal:  Solving for alphaGas, Initial residual = 0, Final residual = 0, No Iterations 0
Min/Max Gas Transfer Weights: 0, 1.2306477e-06
Min/Max Solid Transfer Weights: 0, 5.8631842e-07
Solving UEqn
Min,max U = 0, 18.538566
DILUPBiCG:  Solving for N2, Initial residual = 0, Final residual = 0, No Iterations 0
DILUPBiCG:  Solving for EMg, Initial residual = 0.00092663411, Final residual = 9.9015539e-08, No Iterations 2
Min,max for N2 = 0, 0
Min,max for EMs = 0, 1
Min,max for EMg = 0, 1
DILUPBiCG:  Solving for hs, Initial residual = 0.0099004764, Final residual = 6.1337842e-07, No Iterations 2
T gas min/max   = 299.48745, 300.20379
DICPCG:  Solving for Ts, Initial residual = 1.4178138e-05, Final residual = 4.1221551e-10, No Iterations 11
T solid min/max   = 300.01599, 300.01797
Solving pEqn
Min,max Uest = 0, 18.545369
GAMG:  Solving for p, Initial residual = 0.013520477, Final residual = 0.00065022266, No Iterations 1
Min,max p = 100000, 102201.9
time step continuity errors : sum local = 1.4591423e-05, global = -1.3179373e-05, cumulative = 0.00074749455
Min,max U = 0, 18.534671
Solving pEqn
Min,max Uest = 0, 18.545214
GAMGPCG:  Solving for p, Initial residual = 0.0012125948, Final residual = 1.2638257e-09, No Iterations 5
Min,max p = 100000, 102202.75
time step continuity errors : sum local = 6.3239197e-07, global = 1.5436171e-07, cumulative = 0.00074764891
Min,max U = 0, 18.534389
ExecutionTime = 277.95 s  ClockTime = 589 s

Courant Number mean: 0.23048209 max: 0.49649036
deltaT = 1.3888889e-05
Time = 0.0661111

Correcting burningSolid
diagonal:  Solving for alphaGas, Initial residual = 0, Final residual = 0, No Iterations 0
Min/Max Gas Transfer Weights: 0, 1.2306477e-06
Min/Max Solid Transfer Weights: 0, 5.8631842e-07
Solving UEqn
Min,max U = 0, 18.534389
DILUPBiCG:  Solving for N2, Initial residual = 0, Final residual = 0, No Iterations 0
DILUPBiCG:  Solving for EMg, Initial residual = 0.00093335434, Final residual = 9.9216927e-08, No Iterations 2
Min,max for N2 = 0, 0
Min,max for EMs = 0, 1
Min,max for EMg = 0, 1
DILUPBiCG:  Solving for hs, Initial residual = 0.010073753, Final residual = 6.3111146e-07, No Iterations 2
T gas min/max   = 299.49384, 300.20335
DICPCG:  Solving for Ts, Initial residual = 1.403253e-05, Final residual = 4.075812e-10, No Iterations 11
T solid min/max   = 300.01595, 300.01791
Solving pEqn
Min,max Uest = 0, 18.541355
GAMG:  Solving for p, Initial residual = 0.013826415, Final residual = 0.00065298152, No Iterations 1
Min,max p = 100000, 102201.08
time step continuity errors : sum local = 1.4952377e-05, global = -1.3582654e-05, cumulative = 0.00073406626
Min,max U = 0, 18.530787
Solving pEqn
Min,max Uest = 0, 18.541258
GAMGPCG:  Solving for p, Initial residual = 0.0012103443, Final residual = 1.246536e-09, No Iterations 5
Min,max p = 100000, 102201.89
time step continuity errors : sum local = 6.3517841e-07, global = 1.5755983e-07, cumulative = 0.00073422382
Min,max U = 0, 18.530562
ExecutionTime = 278.82 s  ClockTime = 591 s

Courant Number mean: 0.23040228 max: 0.49643895
deltaT = 1.3888889e-05
Time = 0.066125

Correcting burningSolid
diagonal:  Solving for alphaGas, Initial residual = 0, Final residual = 0, No Iterations 0
Min/Max Gas Transfer Weights: 0, 1.2306477e-06
Min/Max Solid Transfer Weights: 0, 5.8631842e-07
Solving UEqn
Min,max U = 0, 18.530562
DILUPBiCG:  Solving for N2, Initial residual = 0, Final residual = 0, No Iterations 0
DILUPBiCG:  Solving for EMg, Initial residual = 0.00093946437, Final residual = 9.9529192e-08, No Iterations 2
Min,max for N2 = 0, 0
Min,max for EMs = 0, 1
Min,max for EMg = 0, 1
DILUPBiCG:  Solving for hs, Initial residual = 0.010239403, Final residual = 6.5080436e-07, No Iterations 2
T gas min/max   = 299.50017, 300.20328
DICPCG:  Solving for Ts, Initial residual = 1.388422e-05, Final residual = 9.9847518e-10, No Iterations 10
T solid min/max   = 300.0159, 300.01785
Solving pEqn
Min,max Uest = 0, 18.537729
GAMG:  Solving for p, Initial residual = 0.014128357, Final residual = 0.00065754826, No Iterations 1
Min,max p = 100000, 102200.25
time step continuity errors : sum local = 1.5291072e-05, global = -1.3974511e-05, cumulative = 0.0007202493
Min,max U = 0, 18.527286
Solving pEqn
Min,max Uest = 0, 18.537673
GAMGPCG:  Solving for p, Initial residual = 0.0012166949, Final residual = 1.2485635e-09, No Iterations 5
Min,max p = 100000, 102201.05
time step continuity errors : sum local = 6.3801457e-07, global = 1.6059842e-07, cumulative = 0.0007204099
Min,max U = 0, 18.527102
ExecutionTime = 279.7 s  ClockTime = 592 s

Courant Number mean: 0.23032668 max: 0.49639545
deltaT = 1.3888889e-05
Time = 0.0661389

Correcting burningSolid
diagonal:  Solving for alphaGas, Initial residual = 0, Final residual = 0, No Iterations 0
Min/Max Gas Transfer Weights: 0, 1.2306477e-06
Min/Max Solid Transfer Weights: 0, 5.8631842e-07
Solving UEqn
Min,max U = 0, 18.527102
DILUPBiCG:  Solving for N2, Initial residual = 0, Final residual = 0, No Iterations 0
DILUPBiCG:  Solving for EMg, Initial residual = 0.00094507443, Final residual = 1.0005706e-07, No Iterations 2
Min,max for N2 = 0, 0
Min,max for EMs = 0, 1
Min,max for EMg = 0, 1
DILUPBiCG:  Solving for hs, Initial residual = 0.010396929, Final residual = 6.7241619e-07, No Iterations 2
T gas min/max   = 299.50646, 300.20314
DICPCG:  Solving for Ts, Initial residual = 1.3733507e-05, Final residual = 9.883839e-10, No Iterations 10
T solid min/max   = 300.01585, 300.01779
Solving pEqn
Min,max Uest = 0, 18.534479
GAMG:  Solving for p, Initial residual = 0.014425547, Final residual = 0.00066173842, No Iterations 1
Min,max p = 100000, 102199.44
time step continuity errors : sum local = 1.5607813e-05, global = -1.4354331e-05, cumulative = 0.00070605557
Min,max U = 0, 18.524153
Solving pEqn
Min,max Uest = 0, 18.534452
GAMGPCG:  Solving for p, Initial residual = 0.0012171489, Final residual = 1.247024e-09, No Iterations 5
Min,max p = 100000, 102200.21
time step continuity errors : sum local = 6.4044456e-07, global = 1.6350086e-07, cumulative = 0.00070621907
Min,max U = 0, 18.523998
ExecutionTime = 280.58 s  ClockTime = 594 s

Courant Number mean: 0.23025787 max: 0.4963602
deltaT = 1.3888889e-05
Time = 0.0661528

Correcting burningSolid
diagonal:  Solving for alphaGas, Initial residual = 0, Final residual = 0, No Iterations 0
Min/Max Gas Transfer Weights: 0, 1.2306477e-06
Min/Max Solid Transfer Weights: 0, 5.8631842e-07
Solving UEqn
Min,max U = 0, 18.523998
DILUPBiCG:  Solving for N2, Initial residual = 0, Final residual = 0, No Iterations 0
DILUPBiCG:  Solving for EMg, Initial residual = 0.00094989991, Final residual = 1.004746e-07, No Iterations 2
Min,max for N2 = 0, 0
Min,max for EMs = 0, 1
Min,max for EMg = 0, 1
DILUPBiCG:  Solving for hs, Initial residual = 0.010546396, Final residual = 6.9535012e-07, No Iterations 2
T gas min/max   = 299.51262, 300.20293
DICPCG:  Solving for Ts, Initial residual = 1.3580614e-05, Final residual = 9.7832185e-10, No Iterations 10
T solid min/max   = 300.01581, 300.01773
Solving pEqn
Min,max Uest = 0, 18.531576
GAMG:  Solving for p, Initial residual = 0.014673596, Final residual = 0.0006642026, No Iterations 1
Min,max p = 100000, 102198.65
time step continuity errors : sum local = 1.5902778e-05, global = -1.47211e-05, cumulative = 0.00069149797
Min,max U = 0, 18.521358
Solving pEqn
Min,max Uest = 0, 18.531565
GAMGPCG:  Solving for p, Initial residual = 0.0012168573, Final residual = 1.2332914e-09, No Iterations 5
Min,max p = 100000, 102199.4
time step continuity errors : sum local = 6.4164911e-07, global = 1.6586592e-07, cumulative = 0.00069166384
Min,max U = 0, 18.521222
ExecutionTime = 281.45 s  ClockTime = 596 s

Courant Number mean: 0.23019496 max: 0.4963333
deltaT = 1.3888889e-05
Time = 0.0661667

Correcting burningSolid
diagonal:  Solving for alphaGas, Initial residual = 0, Final residual = 0, No Iterations 0
Min/Max Gas Transfer Weights: 0, 1.2306477e-06
Min/Max Solid Transfer Weights: 0, 5.8631842e-07
Solving UEqn
Min,max U = 0, 18.521222
DILUPBiCG:  Solving for N2, Initial residual = 0, Final residual = 0, No Iterations 0
DILUPBiCG:  Solving for EMg, Initial residual = 0.00095460263, Final residual = 1.0049494e-07, No Iterations 2
Min,max for N2 = 0, 0
Min,max for EMs = 0, 1
Min,max for EMg = 0, 1
DILUPBiCG:  Solving for hs, Initial residual = 0.010687096, Final residual = 7.1663849e-07, No Iterations 2
T gas min/max   = 299.51864, 300.20264
DICPCG:  Solving for Ts, Initial residual = 1.3425471e-05, Final residual = 9.6831233e-10, No Iterations 10
T solid min/max   = 300.01576, 300.01767
Solving pEqn
Min,max Uest = 0, 18.528983
GAMG:  Solving for p, Initial residual = 0.01491215, Final residual = 0.00066579258, No Iterations 1
Min,max p = 100000, 102197.86
time step continuity errors : sum local = 1.6176776e-05, global = -1.5074221e-05, cumulative = 0.00067658962
Min,max U = 0, 18.518864
Solving pEqn
Min,max Uest = 0, 18.528982
GAMGPCG:  Solving for p, Initial residual = 0.0012191448, Final residual = 1.2345258e-09, No Iterations 5
Min,max p = 100000, 102198.59
time step continuity errors : sum local = 6.4235255e-07, global = 1.6769586e-07, cumulative = 0.00067675731
Min,max U = 0, 18.518752
ExecutionTime = 282.36 s  ClockTime = 598 s

Courant Number mean: 0.23013674 max: 0.4963147
deltaT = 1.3888889e-05
Time = 0.0661806

Correcting burningSolid
diagonal:  Solving for alphaGas, Initial residual = 0, Final residual = 0, No Iterations 0
Min/Max Gas Transfer Weights: 0, 1.2306477e-06
Min/Max Solid Transfer Weights: 0, 5.8631842e-07
