/*---------------------------------------------------------------------------*\
| =========                 |                                                 |
| \\      /  F ield         | OpenFOAM: The Open Source CFD Toolbox           |
|  \\    /   O peration     | Version:  2.1.x                                 |
|   \\  /    A nd           | Web:      www.OpenFOAM.org                      |
|    \\/     M anipulation  |                                                 |
\*---------------------------------------------------------------------------*/
Build  : 2.1.x-0cda3c01b8ed
Exec   : blockMesh
Date   : Feb 27 2013
Time   : 14:53:57
Host   : "simon.localdomain"
PID    : 13920
Case   : /home/bryce.whitson/OpenFOAM/bryce.whitson-2.1.x/applications/pyroFoam/testCases/heatTransfer/testHT3
nProcs : 1
sigFpe : Enabling floating point exception trapping (FOAM_SIGFPE).
fileModificationChecking : Monitoring run-time modified files using timeStampMaster
allowSystemOperations : Disallowing user-supplied system call operations

// * * * * * * * * * * * * * * * * * * * * * * * * * * * * * * * * * * * * * //
Create time

Creating block mesh from
    "/home/bryce.whitson/OpenFOAM/bryce.whitson-2.1.x/applications/pyroFoam/testCases/heatTransfer/testHT3/constant/polyMesh/blockMeshDict"
Creating curved edges
Creating topology blocks
Creating topology patches

Creating block mesh topology

Check topology

	Basic statistics
		Number of internal faces : 0
		Number of boundary faces : 6
		Number of defined boundary faces : 6
		Number of undefined boundary faces : 0
	Checking patch -> block consistency

Creating block offsets
Creating merge list .

Creating polyMesh from blockMesh
Creating patches
Creating cells
Creating points with scale 1

Writing polyMesh
----------------
Mesh Information
----------------
  boundingBox: (-0.06 0 -0.001) (0.06 0.2 0.001)
  nPoints: 61472
  nCells: 30375
  nFaces: 121860
  nInternalFaces: 60390
----------------
Patches
----------------
  patch 0 (start: 60390 size: 135) name: bottom
  patch 1 (start: 60525 size: 450) name: sides
  patch 2 (start: 60975 size: 60750) name: frontAndBack
  patch 3 (start: 121725 size: 135) name: top

End

/*---------------------------------------------------------------------------*\
| =========                 |                                                 |
| \\      /  F ield         | OpenFOAM: The Open Source CFD Toolbox           |
|  \\    /   O peration     | Version:  2.1.x                                 |
|   \\  /    A nd           | Web:      www.OpenFOAM.org                      |
|    \\/     M anipulation  |                                                 |
\*---------------------------------------------------------------------------*/
Build  : 2.1.x-0cda3c01b8ed
Exec   : VOFSetFields
Date   : Feb 27 2013
Time   : 14:53:58
Host   : "simon.localdomain"
PID    : 13921
Case   : /home/bryce.whitson/OpenFOAM/bryce.whitson-2.1.x/applications/pyroFoam/testCases/heatTransfer/testHT3
nProcs : 1
sigFpe : Enabling floating point exception trapping (FOAM_SIGFPE).
fileModificationChecking : Monitoring run-time modified files using timeStampMaster
allowSystemOperations : Disallowing user-supplied system call operations

// * * * * * * * * * * * * * * * * * * * * * * * * * * * * * * * * * * * * * //
Create time

Create mesh for time = 0

Set 30026 gas and mixed cells and 349 solid cells
/*---------------------------------------------------------------------------*\
| =========                 |                                                 |
| \\      /  F ield         | OpenFOAM: The Open Source CFD Toolbox           |
|  \\    /   O peration     | Version:  2.1.x                                 |
|   \\  /    A nd           | Web:      www.OpenFOAM.org                      |
|    \\/     M anipulation  |                                                 |
\*---------------------------------------------------------------------------*/
Build  : 2.1.x-0cda3c01b8ed
Exec   : decomposePar
Date   : Feb 27 2013
Time   : 14:53:58
Host   : "simon.localdomain"
PID    : 13922
Case   : /home/bryce.whitson/OpenFOAM/bryce.whitson-2.1.x/applications/pyroFoam/testCases/heatTransfer/testHT3
nProcs : 1
sigFpe : Enabling floating point exception trapping (FOAM_SIGFPE).
fileModificationChecking : Monitoring run-time modified files using timeStampMaster
allowSystemOperations : Disallowing user-supplied system call operations

// * * * * * * * * * * * * * * * * * * * * * * * * * * * * * * * * * * * * * //
Create time

Create mesh

Calculating distribution of cells
Selecting decompositionMethod simple

Finished decomposition in 0.05 s

Calculating original mesh data

Distributing cells to processors

Distributing faces to processors

Distributing points to processors

Constructing processor meshes

Processor 0
    Number of cells = 7572
    Number of faces shared with processor 1 = 113
    Number of faces shared with processor 2 = 68
    Number of faces shared with processor 3 = 1
    Number of processor patches = 3
    Number of processor faces = 182
    Number of boundary faces = 15324

Processor 1
    Number of cells = 7616
    Number of faces shared with processor 0 = 113
    Number of faces shared with processor 3 = 67
    Number of processor patches = 2
    Number of processor faces = 180
    Number of boundary faces = 15412

Processor 2
    Number of cells = 7616
    Number of faces shared with processor 0 = 68
    Number of faces shared with processor 3 = 112
    Number of processor patches = 2
    Number of processor faces = 180
    Number of boundary faces = 15412

Processor 3
    Number of cells = 7571
    Number of faces shared with processor 0 = 1
    Number of faces shared with processor 1 = 67
    Number of faces shared with processor 2 = 112
    Number of processor patches = 3
    Number of processor faces = 180
    Number of boundary faces = 15322

Number of processor faces = 361
Max number of cells = 7616 (0.29300412% above average 7593.75)
Max number of processor patches = 3 (20% above average 2.5)
Max number of faces between processors = 182 (0.83102493% above average 180.5)

Time = 0
Detected additional non-decomposed files in "/home/bryce.whitson/OpenFOAM/bryce.whitson-2.1.x/applications/pyroFoam/testCases/heatTransfer/testHT3/0/uniform"

Processor 0: field transfer
Processor 1: field transfer
Processor 2: field transfer
Processor 3: field transfer

End.

/*---------------------------------------------------------------------------*\
| =========                 |                                                 |
| \\      /  F ield         | OpenFOAM: The Open Source CFD Toolbox           |
|  \\    /   O peration     | Version:  2.1.x                                 |
|   \\  /    A nd           | Web:      www.OpenFOAM.org                      |
|    \\/     M anipulation  |                                                 |
\*---------------------------------------------------------------------------*/
Build  : 2.1.x-0cda3c01b8ed
Exec   : pyroFoam -parallel
Date   : Feb 27 2013
Time   : 14:54:00
Host   : "simon.localdomain"
PID    : 13928
Case   : /home/bryce.whitson/OpenFOAM/bryce.whitson-2.1.x/applications/pyroFoam/testCases/heatTransfer/testHT3
nProcs : 4
Slaves : 
3
(
"simon.localdomain.13929"
"simon.localdomain.13930"
"simon.localdomain.13931"
)

Pstream initialized with:
    floatTransfer     : 0
    nProcsSimpleSum   : 0
    commsType         : nonBlocking
sigFpe : Enabling floating point exception trapping (FOAM_SIGFPE).
fileModificationChecking : Monitoring run-time modified files using timeStampMaster
allowSystemOperations : Disallowing user-supplied system call operations

// * * * * * * * * * * * * * * * * * * * * * * * * * * * * * * * * * * * * * //
Create time

Create mesh for time = 0

Selecting dynamicFvMesh staticFvMesh

Reading g
Creating combustion model

Selecting combustion model PaSR<psiChemistryCombustionModel>
Selecting psiChemistryModel ODEChemistryModel<gasThermoPhysics>
Selecting thermodynamics package hsPsiMixtureThermo<reactingMixture<gasThermoPhysics>>
Selecting chemistryReader foamChemistryReader
ODEChemistryModel: Number of species = 3 and reactions = 0
Selecting ODE solver SIBS
Reading field U

Reading/calculating face flux field phi

Creating turbulence model.

Selecting turbulence model type laminar
Creating field dpdt

Creating field kinetic energy K

Created immersed boundary
Constructed constSolidThermo with
    rho        : rho [1 -3 0 0 0 0 0] 90
    Cp         : Cp [0 2 -2 -1 0 0 0] 45
    K          : K [1 1 -3 -1 0 0 0] 500
    Hf         : Hf [0 2 -2 0 0 0 0] 0
    emissivity : emissivity [0 0 0 0 0 0 0] 0
    kappa      : kappa [0 -1 0 0 0 0 0] 0
    sigmaS     : sigmaS [0 -1 0 0 0 0 0] 0

Selecting pyrolysis model NoPyrolysis
Created burningSolid
  Linked burningSolid with gas specie
Courant Number mean: 0.011345741 max: 0.061875

PIMPLE: Operating solver in PISO mode


Starting time loop

Courant Number mean: 0.011345741 max: 0.061875
deltaT = 1.1990408e-05
Time = 1.19904e-05

Correcting burningSolid
diagonal:  Solving for alphaGas, Initial residual = 0, Final residual = 0, No Iterations 0
Min/Max Gas Transfer Weights: 0, 6.9880646e-07
Min/Max Solid Transfer Weights: 0, 9.4840358e-07
Solving UEqn
Min,max U = 0, 10
DILUPBiCG:  Solving for N2, Initial residual = 0, Final residual = 0, No Iterations 0
DILUPBiCG:  Solving for EMg, Initial residual = 1, Final residual = 5.3987476e-07, No Iterations 1
Min,max for N2 = 0, 0
Min,max for EMs = 0, 0.99999997
Min,max for EMg = 3.3152021e-08, 1
DILUPBiCG:  Solving for hs, Initial residual = 1, Final residual = 6.1827848e-07, No Iterations 1
T gas min/max   = 0, 300.22775
DICPCG:  Solving for Ts, Initial residual = 1, Final residual = 9.3608689e-13, No Iterations 1
T solid min/max   = 0, 300
Solving pEqn
Min,max Uest = 0, 10
GAMG:  Solving for p, Initial residual = 1, Final residual = 0.04869771, No Iterations 3
Min,max p = 99746.104, 102617.5
time step continuity errors : sum local = 0.00056732038, global = -0.00054777042, cumulative = -0.00054777042
Min,max U = 0, 10
Solving pEqn
Min,max Uest = 0, 10
GAMGPCG:  Solving for p, Initial residual = 0.016094785, Final residual = 2.92113e-09, No Iterations 6
Min,max p = 99743.16, 102675.94
time step continuity errors : sum local = 2.2283651e-05, global = -7.3466203e-06, cumulative = -0.00055511704
Min,max U = 0, 10
ExecutionTime = 0.8 s  ClockTime = 1 s

Courant Number mean: 0.015548775 max: 0.12197185
deltaT = 1.4371237e-05
Time = 2.63616e-05

Correcting burningSolid
diagonal:  Solving for alphaGas, Initial residual = 0, Final residual = 0, No Iterations 0
Min/Max Gas Transfer Weights: 0, 6.9880646e-07
Min/Max Solid Transfer Weights: 0, 9.4840358e-07
Solving UEqn
Min,max U = 0, 10
DILUPBiCG:  Solving for N2, Initial residual = 0, Final residual = 0, No Iterations 0
DILUPBiCG:  Solving for EMg, Initial residual = 0.015634915, Final residual = 5.2111465e-07, No Iterations 1
Min,max for N2 = 0, 0
Min,max for EMs = 0, 1
Min,max for EMg = 0, 1
DILUPBiCG:  Solving for hs, Initial residual = 0.43364952, Final residual = 3.3600703e-09, No Iterations 2
T gas min/max   = 0, 302.75026
DICPCG:  Solving for Ts, Initial residual = 8.311344e-07, Final residual = 3.1405646e-10, No Iterations 8
T solid min/max   = 0, 300.00002
Solving pEqn
Min,max Uest = 0, 10
GAMG:  Solving for p, Initial residual = 0.40312985, Final residual = 0.010682121, No Iterations 3
Min,max p = 99770.411, 103175.63
time step continuity errors : sum local = 0.00069907885, global = -0.0006803812, cumulative = -0.0012354982
Min,max U = 0, 10
Solving pEqn
Min,max Uest = 0, 10
GAMGPCG:  Solving for p, Initial residual = 0.013806308, Final residual = 2.6256492e-09, No Iterations 7
Min,max p = 99770.411, 103141
time step continuity errors : sum local = 2.1654107e-05, global = 1.1168834e-05, cumulative = -0.0012243294
Min,max U = 0, 10
ExecutionTime = 1.34 s  ClockTime = 2 s

Courant Number mean: 0.021860104 max: 0.16094156
deltaT = 1.7225628e-05
Time = 4.35873e-05

Correcting burningSolid
diagonal:  Solving for alphaGas, Initial residual = 0, Final residual = 0, No Iterations 0
Min/Max Gas Transfer Weights: 0, 6.9880646e-07
Min/Max Solid Transfer Weights: 0, 9.4840358e-07
Solving UEqn
Min,max U = 0, 10
DILUPBiCG:  Solving for N2, Initial residual = 0, Final residual = 0, No Iterations 0
DILUPBiCG:  Solving for EMg, Initial residual = 0.020237432, Final residual = 3.9907654e-10, No Iterations 2
Min,max for N2 = 0, 0
Min,max for EMs = 0, 1
Min,max for EMg = 0, 1
DILUPBiCG:  Solving for hs, Initial residual = 0.25410857, Final residual = 2.2376846e-09, No Iterations 2
T gas min/max   = 0, 302.90895
DICPCG:  Solving for Ts, Initial residual = 5.891524e-06, Final residual = 8.854573e-10, No Iterations 9
T solid min/max   = 0, 300.00012
Solving pEqn
Min,max Uest = 0, 10
GAMG:  Solving for p, Initial residual = 0.24153333, Final residual = 0.00532582, No Iterations 4
Min,max p = 99791.603, 103170.04
time step continuity errors : sum local = 0.00082643163, global = -0.0007864973, cumulative = -0.0020108267
Min,max U = 0, 10.405146
Solving pEqn
Min,max Uest = 0, 10
GAMGPCG:  Solving for p, Initial residual = 0.007475578, Final residual = 1.0930732e-09, No Iterations 7
Min,max p = 99791.603, 103110.1
time step continuity errors : sum local = 2.4534067e-05, global = -1.4941727e-05, cumulative = -0.0020257684
Min,max U = 0, 10.41775
ExecutionTime = 1.9 s  ClockTime = 2 s

Courant Number mean: 0.030938739 max: 0.19578358
deltaT = 2.0656458e-05
Time = 6.42437e-05

Correcting burningSolid
diagonal:  Solving for alphaGas, Initial residual = 0, Final residual = 0, No Iterations 0
Min/Max Gas Transfer Weights: 0, 6.9880646e-07
Min/Max Solid Transfer Weights: 0, 9.4840358e-07
Solving UEqn
Min,max U = 0, 10.41775
DILUPBiCG:  Solving for N2, Initial residual = 0, Final residual = 0, No Iterations 0
DILUPBiCG:  Solving for EMg, Initial residual = 0.023937554, Final residual = 7.895102e-10, No Iterations 2
Min,max for N2 = 0, 0
Min,max for EMs = 0, 1
Min,max for EMg = 0, 1
DILUPBiCG:  Solving for hs, Initial residual = 0.1744647, Final residual = 3.1230774e-09, No Iterations 2
T gas min/max   = 0, 303.20625
DICPCG:  Solving for Ts, Initial residual = 9.7513854e-06, Final residual = 6.1169819e-10, No Iterations 10
T solid min/max   = 0, 300.00021
Solving pEqn
Min,max Uest = 0, 10.322984
GAMG:  Solving for p, Initial residual = 0.17397575, Final residual = 0.0073705086, No Iterations 4
Min,max p = 99854.83, 103155.58
time step continuity errors : sum local = 0.00098962732, global = -0.00092574278, cumulative = -0.0029515112
Min,max U = 0, 10.399364
Solving pEqn
Min,max Uest = 0, 10.253766
GAMGPCG:  Solving for p, Initial residual = 0.0079919688, Final residual = 2.0289593e-09, No Iterations 8
Min,max p = 99854.83, 103066.45
time step continuity errors : sum local = 4.5915929e-05, global = -3.439072e-05, cumulative = -0.0029859019
Min,max U = 0, 10.305488
ExecutionTime = 2.47 s  ClockTime = 3 s

Courant Number mean: 0.043915789 max: 0.23546239
deltaT = 2.4777447e-05
Time = 8.90212e-05

Correcting burningSolid
diagonal:  Solving for alphaGas, Initial residual = 0, Final residual = 0, No Iterations 0
Min/Max Gas Transfer Weights: 0, 6.9880646e-07
Min/Max Solid Transfer Weights: 0, 9.4840358e-07
Solving UEqn
Min,max U = 0, 10.305488
DILUPBiCG:  Solving for N2, Initial residual = 0, Final residual = 0, No Iterations 0
DILUPBiCG:  Solving for EMg, Initial residual = 0.02734815, Final residual = 1.5626652e-09, No Iterations 2
Min,max for N2 = 0, 0
Min,max for EMs = 0, 1
Min,max for EMg = 0, 1
DILUPBiCG:  Solving for hs, Initial residual = 0.13873326, Final residual = 4.7807668e-09, No Iterations 2
T gas min/max   = 0, 303.2808
DICPCG:  Solving for Ts, Initial residual = 9.6545916e-06, Final residual = 6.819544e-10, No Iterations 10
T solid min/max   = 0, 300.00028
Solving pEqn
Min,max Uest = 0, 10.301969
GAMG:  Solving for p, Initial residual = 0.14202046, Final residual = 0.0052581036, No Iterations 5
Min,max p = 99912.304, 103126.94
time step continuity errors : sum local = 0.0011944392, global = -0.0011858821, cumulative = -0.0041717841
Min,max U = 0, 10.246783
Solving pEqn
Min,max Uest = 0, 10.257158
GAMGPCG:  Solving for p, Initial residual = 0.005707885, Final residual = 1.5078702e-09, No Iterations 8
Min,max p = 99912.304, 103056.52
time step continuity errors : sum local = 4.4962908e-05, global = 3.4393802e-05, cumulative = -0.0041373903
Min,max U = 0, 10.185318
ExecutionTime = 3.03 s  ClockTime = 3 s

Courant Number mean: 0.062444851 max: 0.28231061
deltaT = 2.9149938e-05
Time = 0.000118171

Correcting burningSolid
diagonal:  Solving for alphaGas, Initial residual = 0, Final residual = 0, No Iterations 0
Min/Max Gas Transfer Weights: 0, 6.9880646e-07
Min/Max Solid Transfer Weights: 0, 9.4840358e-07
Solving UEqn
Min,max U = 0, 10.185318
DILUPBiCG:  Solving for N2, Initial residual = 0, Final residual = 0, No Iterations 0
DILUPBiCG:  Solving for EMg, Initial residual = 0.030775862, Final residual = 2.9241865e-09, No Iterations 2
Min,max for N2 = 0, 0
Min,max for EMs = 0, 1
Min,max for EMg = 0, 1
DILUPBiCG:  Solving for hs, Initial residual = 0.1185182, Final residual = 8.561164e-09, No Iterations 2
T gas min/max   = 0, 303.30817
DICPCG:  Solving for Ts, Initial residual = 9.3555027e-06, Final residual = 8.2757904e-10, No Iterations 11
T solid min/max   = 0, 300.00034
Solving pEqn
Min,max Uest = 0, 10.198794
GAMG:  Solving for p, Initial residual = 0.12102576, Final residual = 0.003540309, No Iterations 6
Min,max p = 99961.214, 103093.38
time step continuity errors : sum local = 0.0013703531, global = -0.0013245452, cumulative = -0.0054619355
Min,max U = 0, 10.167514
Solving pEqn
Min,max Uest = 0, 10.1837
GAMGPCG:  Solving for p, Initial residual = 0.0045158637, Final residual = 7.1927657e-09, No Iterations 8
Min,max p = 99961.789, 103065.1
time step continuity errors : sum local = 4.3190823e-05, global = -3.0640144e-05, cumulative = -0.0054925756
Min,max U = 0, 10.14599
ExecutionTime = 3.6 s  ClockTime = 4 s

Courant Number mean: 0.086889895 max: 0.33186489
deltaT = 3.3497725e-05
Time = 0.000151669

Correcting burningSolid
diagonal:  Solving for alphaGas, Initial residual = 0, Final residual = 0, No Iterations 0
Min/Max Gas Transfer Weights: 0, 6.9880646e-07
Min/Max Solid Transfer Weights: 0, 9.4840358e-07
Solving UEqn
Min,max U = 0, 10.14599
DILUPBiCG:  Solving for N2, Initial residual = 0, Final residual = 0, No Iterations 0
DILUPBiCG:  Solving for EMg, Initial residual = 0.034232971, Final residual = 9.3107354e-09, No Iterations 2
Min,max for N2 = 0, 0
Min,max for EMs = 0, 1
Min,max for EMg = 0, 1
DILUPBiCG:  Solving for hs, Initial residual = 0.1055366, Final residual = 3.642218e-08, No Iterations 2
T gas min/max   = 0, 303.32809
DICPCG:  Solving for Ts, Initial residual = 1.1812969e-05, Final residual = 6.1310211e-10, No Iterations 13
T solid min/max   = 0, 300.00047
Solving pEqn
Min,max Uest = 0, 10.142602
GAMG:  Solving for p, Initial residual = 0.1052894, Final residual = 0.0040357149, No Iterations 6
Min,max p = 99981.785, 103097.81
time step continuity errors : sum local = 0.0015601133, global = -0.0015183352, cumulative = -0.0070109108
Min,max U = 0, 10.127716
Solving pEqn
Min,max Uest = 0, 10.132655
GAMGPCG:  Solving for p, Initial residual = 0.0047101377, Final residual = 3.5646917e-09, No Iterations 9
Min,max p = 99985.55, 103089.32
time step continuity errors : sum local = 5.6439993e-05, global = -4.057431e-05, cumulative = -0.0070514851
Min,max U = 0, 10.11519
ExecutionTime = 4.21 s  ClockTime = 5 s

Courant Number mean: 0.11753772 max: 0.38190304
deltaT = 3.7878197e-05
Time = 0.000189547

Correcting burningSolid
diagonal:  Solving for alphaGas, Initial residual = 0, Final residual = 0, No Iterations 0
Min/Max Gas Transfer Weights: 0, 6.9880646e-07
Min/Max Solid Transfer Weights: 0, 9.4840358e-07
Solving UEqn
Min,max U = 0, 10.11519
DILUPBiCG:  Solving for N2, Initial residual = 0, Final residual = 0, No Iterations 0
DILUPBiCG:  Solving for EMg, Initial residual = 0.037872793, Final residual = 1.255938e-07, No Iterations 2
Min,max for N2 = 0, 0
Min,max for EMs = 0, 1
Min,max for EMg = 0, 1
DILUPBiCG:  Solving for hs, Initial residual = 0.097480029, Final residual = 5.0744816e-07, No Iterations 2
T gas min/max   = 0, 303.35082
DICPCG:  Solving for Ts, Initial residual = 2.5673544e-05, Final residual = 8.0703635e-10, No Iterations 15
T solid min/max   = 0, 300.00085
Solving pEqn
Min,max Uest = 0, 10.109944
GAMG:  Solving for p, Initial residual = 0.095611614, Final residual = 0.0045735334, No Iterations 6
Min,max p = 99992.088, 103137.19
time step continuity errors : sum local = 0.0017477232, global = -0.0017143655, cumulative = -0.0087658507
Min,max U = 0, 10.099455
Solving pEqn
Min,max Uest = 0, 10.107211
GAMGPCG:  Solving for p, Initial residual = 0.0053319225, Final residual = 3.7797043e-09, No Iterations 10
Min,max p = 99997.136, 103134.94
time step continuity errors : sum local = 7.0062774e-05, global = -4.9327185e-05, cumulative = -0.0088151779
Min,max U = 0, 10.101882
ExecutionTime = 4.8 s  ClockTime = 5 s

Courant Number mean: 0.1558295 max: 0.53465726
deltaT = 3.5416798e-05
Time = 0.000224964

Correcting burningSolid
diagonal:  Solving for alphaGas, Initial residual = 0, Final residual = 0, No Iterations 0
Min/Max Gas Transfer Weights: 0, 6.9880646e-07
Min/Max Solid Transfer Weights: 0, 9.4840358e-07
Solving UEqn
Min,max U = 0, 10.101882
DILUPBiCG:  Solving for N2, Initial residual = 0, Final residual = 0, No Iterations 0
DILUPBiCG:  Solving for EMg, Initial residual = 0.03533099, Final residual = 3.9079898e-07, No Iterations 2
Min,max for N2 = 0, 0
Min,max for EMs = 0, 1
Min,max for EMg = 0, 1
DILUPBiCG:  Solving for hs, Initial residual = 0.078499376, Final residual = 9.7568831e-09, No Iterations 3
T gas min/max   = 0, 303.37891
DICPCG:  Solving for Ts, Initial residual = 5.3924811e-05, Final residual = 4.1925408e-10, No Iterations 16
T solid min/max   = 0, 300.00158
Solving pEqn
Min,max Uest = 0, 10.102983
GAMG:  Solving for p, Initial residual = 0.074172438, Final residual = 0.0025241469, No Iterations 6
Min,max p = 99995.524, 103228.66
time step continuity errors : sum local = 0.0016295671, global = -0.0016173452, cumulative = -0.010432523
Min,max U = 0, 11.788983
Solving pEqn
Min,max Uest = 0, 10.102396
GAMGPCG:  Solving for p, Initial residual = 0.0034039593, Final residual = 8.2126977e-09, No Iterations 8
Min,max p = 99999.486, 103227.38
time step continuity errors : sum local = 4.4433903e-05, global = -3.1026011e-05, cumulative = -0.010463549
Min,max U = 0, 12.096031
ExecutionTime = 5.36 s  ClockTime = 6 s

Courant Number mean: 0.16621354 max: 0.64128137
deltaT = 2.7613097e-05
Time = 0.000252577

Correcting burningSolid
diagonal:  Solving for alphaGas, Initial residual = 0, Final residual = 0, No Iterations 0
Min/Max Gas Transfer Weights: 0, 6.9880646e-07
Min/Max Solid Transfer Weights: 0, 9.4840358e-07
Solving UEqn
Min,max U = 0, 12.096031
DILUPBiCG:  Solving for N2, Initial residual = 0, Final residual = 0, No Iterations 0
DILUPBiCG:  Solving for EMg, Initial residual = 0.027812665, Final residual = 3.0435507e-07, No Iterations 2
Min,max for N2 = 0, 0
Min,max for EMs = 0, 1
Min,max for EMg = 0, 1
DILUPBiCG:  Solving for hs, Initial residual = 0.055877474, Final residual = 8.4248871e-09, No Iterations 3
T gas min/max   = 0, 303.40988
DICPCG:  Solving for Ts, Initial residual = 7.5321701e-05, Final residual = 7.9251163e-10, No Iterations 14
T solid min/max   = 0, 300.00239
Solving pEqn
Min,max Uest = 0, 12.8868
GAMG:  Solving for p, Initial residual = 0.053215063, Final residual = 0.0019857788, No Iterations 4
Min,max p = 99996.531, 103328.96
time step continuity errors : sum local = 0.001262964, global = -0.0012557252, cumulative = -0.011719274
Min,max U = 0, 14.210389
Solving pEqn
Min,max Uest = 0, 13.161442
GAMGPCG:  Solving for p, Initial residual = 0.0024119348, Final residual = 8.5551439e-09, No Iterations 7
Min,max p = 99999.865, 103329.06
time step continuity errors : sum local = 3.784058e-05, global = -2.7630155e-05, cumulative = -0.011746904
Min,max U = 0, 14.461801
ExecutionTime = 5.91 s  ClockTime = 6 s

Courant Number mean: 0.14231696 max: 0.56943074
deltaT = 2.4187154e-05
Time = 0.000276764

Correcting burningSolid
diagonal:  Solving for alphaGas, Initial residual = 0, Final residual = 0, No Iterations 0
Min/Max Gas Transfer Weights: 0, 6.9880646e-07
Min/Max Solid Transfer Weights: 0, 9.4840358e-07
Solving UEqn
Min,max U = 0, 14.461801
DILUPBiCG:  Solving for N2, Initial residual = 0, Final residual = 0, No Iterations 0
DILUPBiCG:  Solving for EMg, Initial residual = 0.024541504, Final residual = 5.1117348e-07, No Iterations 2
Min,max for N2 = 0, 0
Min,max for EMs = 0, 1
Min,max for EMg = 0, 1
DILUPBiCG:  Solving for hs, Initial residual = 0.046603208, Final residual = 8.3384587e-08, No Iterations 3
T gas min/max   = 0, 303.44292
DICPCG:  Solving for Ts, Initial residual = 9.0844129e-05, Final residual = 7.8874204e-10, No Iterations 13
T solid min/max   = 0, 300.00319
Solving pEqn
Min,max Uest = 0, 15.018249
GAMG:  Solving for p, Initial residual = 0.045094984, Final residual = 0.00190962, No Iterations 3
Min,max p = 100000, 103384.41
time step continuity errors : sum local = 0.0011475586, global = -0.0011475586, cumulative = -0.012894463
Min,max U = 0, 16.168388
Solving pEqn
Min,max Uest = 0, 15.037313
GAMGPCG:  Solving for p, Initial residual = 0.0021419822, Final residual = 2.5977621e-09, No Iterations 7
Min,max p = 100000, 103377.92
time step continuity errors : sum local = 4.0265174e-05, global = 2.5933317e-05, cumulative = -0.01286853
Min,max U = 0, 16.374116
ExecutionTime = 6.49 s  ClockTime = 7 s

Courant Number mean: 0.13460556 max: 0.54173124
deltaT = 2.2301e-05
Time = 0.000299065

Correcting burningSolid
diagonal:  Solving for alphaGas, Initial residual = 0, Final residual = 0, No Iterations 0
Min/Max Gas Transfer Weights: 0, 6.9880646e-07
Min/Max Solid Transfer Weights: 0, 9.4840358e-07
Solving UEqn
Min,max U = 0, 16.374116
DILUPBiCG:  Solving for N2, Initial residual = 0, Final residual = 0, No Iterations 0
DILUPBiCG:  Solving for EMg, Initial residual = 0.022765419, Final residual = 8.8931685e-07, No Iterations 2
Min,max for N2 = 0, 0
Min,max for EMs = 0, 1
Min,max for EMg = 0, 1
DILUPBiCG:  Solving for hs, Initial residual = 0.041716316, Final residual = 1.2691007e-08, No Iterations 3
T gas min/max   = 0, 303.47629
DICPCG:  Solving for Ts, Initial residual = 9.9808643e-05, Final residual = 4.2310997e-10, No Iterations 13
T solid min/max   = 0, 300.00392
Solving pEqn
Min,max Uest = 0, 16.509775
GAMG:  Solving for p, Initial residual = 0.040982229, Final residual = 0.0012497196, No Iterations 3
Min,max p = 100000, 103383.37
time step continuity errors : sum local = 0.0010501035, global = -0.001050091, cumulative = -0.013918621
Min,max U = 0, 17.50103
Solving pEqn
Min,max Uest = 0, 16.587397
GAMGPCG:  Solving for p, Initial residual = 0.0014183056, Final residual = 6.7177395e-09, No Iterations 6
Min,max p = 100000, 103375.71
time step continuity errors : sum local = 2.757555e-05, global = 1.8005161e-05, cumulative = -0.013900616
Min,max U = 0, 17.595239
ExecutionTime = 7.06 s  ClockTime = 7 s

Courant Number mean: 0.13267972 max: 0.52688603
deltaT = 2.1134934e-05
Time = 0.0003202

Correcting burningSolid
diagonal:  Solving for alphaGas, Initial residual = 0, Final residual = 0, No Iterations 0
Min/Max Gas Transfer Weights: 0, 6.9880646e-07
Min/Max Solid Transfer Weights: 0, 9.4840358e-07
Solving UEqn
Min,max U = 0, 17.595239
DILUPBiCG:  Solving for N2, Initial residual = 0, Final residual = 0, No Iterations 0
DILUPBiCG:  Solving for EMg, Initial residual = 0.021695797, Final residual = 2.916209e-09, No Iterations 3
Min,max for N2 = 0, 0
Min,max for EMs = 0, 1
Min,max for EMg = 0, 1
DILUPBiCG:  Solving for hs, Initial residual = 0.038830206, Final residual = 7.1254418e-09, No Iterations 3
T gas min/max   = 0, 303.50692
DICPCG:  Solving for Ts, Initial residual = 0.00010504479, Final residual = 7.02139e-10, No Iterations 12
T solid min/max   = 0, 300.00458
Solving pEqn
Min,max Uest = 0, 17.488096
GAMG:  Solving for p, Initial residual = 0.039022851, Final residual = 0.00092726807, No Iterations 3
Min,max p = 100000, 103345.95
time step continuity errors : sum local = 0.00099936638, global = -0.00099036688, cumulative = -0.014890982
Min,max U = 0, 18.249884
Solving pEqn
Min,max Uest = 0, 17.515173
GAMGPCG:  Solving for p, Initial residual = 0.001050362, Final residual = 3.8279006e-09, No Iterations 6
Min,max p = 100000, 103344.59
time step continuity errors : sum local = 2.12147e-05, global = 1.4068558e-05, cumulative = -0.014876914
Min,max U = 0, 18.291337
ExecutionTime = 7.63 s  ClockTime = 8 s

Courant Number mean: 0.13350872 max: 0.51702031
deltaT = 2.0421519e-05
Time = 0.000340622

Correcting burningSolid
diagonal:  Solving for alphaGas, Initial residual = 0, Final residual = 0, No Iterations 0
Min/Max Gas Transfer Weights: 0, 6.9880646e-07
Min/Max Solid Transfer Weights: 0, 9.4840358e-07
Solving UEqn
Min,max U = 0, 18.291337
DILUPBiCG:  Solving for N2, Initial residual = 0, Final residual = 0, No Iterations 0
DILUPBiCG:  Solving for EMg, Initial residual = 0.02124118, Final residual = 2.9254299e-09, No Iterations 3
Min,max for N2 = 0, 0
Min,max for EMs = 0, 1
Min,max for EMg = 0, 1
DILUPBiCG:  Solving for hs, Initial residual = 0.037529631, Final residual = 6.1451298e-09, No Iterations 3
T gas min/max   = 0, 303.53255
DICPCG:  Solving for Ts, Initial residual = 0.00010827352, Final residual = 4.3592092e-10, No Iterations 12
T solid min/max   = 0, 300.00518
Solving pEqn
Min,max Uest = 0, 18.028084
GAMG:  Solving for p, Initial residual = 0.038048726, Final residual = 0.00076549234, No Iterations 3
Min,max p = 100000, 103347.71
time step continuity errors : sum local = 0.00097332498, global = -0.00095352949, cumulative = -0.015830443
Min,max U = 0, 18.626261
Solving pEqn
Min,max Uest = 0, 18.024221
GAMGPCG:  Solving for p, Initial residual = 0.00085479484, Final residual = 2.7832816e-09, No Iterations 6
Min,max p = 100000, 103347.55
time step continuity errors : sum local = 1.7791669e-05, global = 1.2005372e-05, cumulative = -0.015818438
Min,max U = 0, 18.635929
ExecutionTime = 8.22 s  ClockTime = 9 s

Courant Number mean: 0.13628302 max: 0.51105058
deltaT = 1.9957394e-05
Time = 0.000360579

Correcting burningSolid
diagonal:  Solving for alphaGas, Initial residual = 0, Final residual = 0, No Iterations 0
Min/Max Gas Transfer Weights: 0, 6.9880646e-07
Min/Max Solid Transfer Weights: 0, 9.4840358e-07
Solving UEqn
Min,max U = 0, 18.635929
DILUPBiCG:  Solving for N2, Initial residual = 0, Final residual = 0, No Iterations 0
DILUPBiCG:  Solving for EMg, Initial residual = 0.021019032, Final residual = 2.952689e-09, No Iterations 3
Min,max for N2 = 0, 0
Min,max for EMs = 0, 1
Min,max for EMg = 0, 1
DILUPBiCG:  Solving for hs, Initial residual = 0.037052779, Final residual = 5.77825e-09, No Iterations 3
T gas min/max   = 0, 303.55112
DICPCG:  Solving for Ts, Initial residual = 0.0001101509, Final residual = 9.2092847e-10, No Iterations 11
T solid min/max   = 0, 300.00573
Solving pEqn
Min,max Uest = 0, 18.200745
GAMG:  Solving for p, Initial residual = 0.037528531, Final residual = 0.0006851427, No Iterations 3
Min,max p = 100000, 103366.48
time step continuity errors : sum local = 0.0009548763, global = -0.00092875875, cumulative = -0.016747197
Min,max U = 0, 18.66458
Solving pEqn
Min,max Uest = 0, 18.20126
GAMGPCG:  Solving for p, Initial residual = 0.00074878496, Final residual = 1.6805719e-09, No Iterations 6
Min,max p = 100000, 103366.24
time step continuity errors : sum local = 1.5575414e-05, global = 1.070069e-05, cumulative = -0.016736496
Min,max U = 0, 18.676858
ExecutionTime = 8.79 s  ClockTime = 9 s

Courant Number mean: 0.14013554 max: 0.50679804
deltaT = 1.9672288e-05
Time = 0.000380251

Correcting burningSolid
diagonal:  Solving for alphaGas, Initial residual = 0, Final residual = 0, No Iterations 0
Min/Max Gas Transfer Weights: 0, 6.9880646e-07
Min/Max Solid Transfer Weights: 0, 9.4840358e-07
Solving UEqn
Min,max U = 0, 18.676858
DILUPBiCG:  Solving for N2, Initial residual = 0, Final residual = 0, No Iterations 0
DILUPBiCG:  Solving for EMg, Initial residual = 0.020867188, Final residual = 2.9372586e-09, No Iterations 3
Min,max for N2 = 0, 0
Min,max for EMs = 0, 1
Min,max for EMg = 0, 1
DILUPBiCG:  Solving for hs, Initial residual = 0.036989027, Final residual = 4.9349763e-09, No Iterations 3
T gas min/max   = 0, 303.56116
DICPCG:  Solving for Ts, Initial residual = 0.00011130559, Final residual = 7.5557207e-10, No Iterations 11
T solid min/max   = 0, 300.00624
Solving pEqn
Min,max Uest = 0, 18.44705
GAMG:  Solving for p, Initial residual = 0.037318791, Final residual = 0.0016885902, No Iterations 2
Min,max p = 100000, 103369.74
time step continuity errors : sum local = 0.00090925259, global = -0.00087695279, cumulative = -0.017613449
Min,max U = 0, 18.620305
Solving pEqn
Min,max Uest = 0, 18.456945
GAMGPCG:  Solving for p, Initial residual = 0.0018135179, Final residual = 2.8868673e-09, No Iterations 6
Min,max p = 100000, 103376.04
time step continuity errors : sum local = 3.8561722e-05, global = -2.5279261e-05, cumulative = -0.017638728
Min,max U = 0, 18.626936
ExecutionTime = 9.34 s  ClockTime = 10 s

Courant Number mean: 0.14485249 max: 0.50422886
deltaT = 1.9473176e-05
Time = 0.000399724

Correcting burningSolid
diagonal:  Solving for alphaGas, Initial residual = 0, Final residual = 0, No Iterations 0
Min/Max Gas Transfer Weights: 0, 6.9880646e-07
Min/Max Solid Transfer Weights: 0, 9.4840358e-07
Solving UEqn
Min,max U = 0, 18.626936
DILUPBiCG:  Solving for N2, Initial residual = 0, Final residual = 0, No Iterations 0
DILUPBiCG:  Solving for EMg, Initial residual = 0.020672045, Final residual = 2.8768037e-09, No Iterations 3
Min,max for N2 = 0, 0
Min,max for EMs = 0, 1
Min,max for EMg = 0, 1
DILUPBiCG:  Solving for hs, Initial residual = 0.037168273, Final residual = 3.847078e-09, No Iterations 3
T gas min/max   = 0, 303.56195
DICPCG:  Solving for Ts, Initial residual = 0.00011183934, Final residual = 7.1694583e-10, No Iterations 11
T solid min/max   = 0, 300.00671
Solving pEqn
Min,max Uest = 0, 18.665196
GAMG:  Solving for p, Initial residual = 0.037354044, Final residual = 0.0015107619, No Iterations 2
Min,max p = 100000, 103369.56
time step continuity errors : sum local = 0.00090082255, global = -0.00086750712, cumulative = -0.018506235
Min,max U = 0, 18.732377
Solving pEqn
Min,max Uest = 0, 18.672946
GAMGPCG:  Solving for p, Initial residual = 0.0016290683, Final residual = 3.0098448e-09, No Iterations 6
Min,max p = 100000, 103374.48
time step continuity errors : sum local = 3.3248806e-05, global = -2.2041364e-05, cumulative = -0.018528277
Min,max U = 0, 18.743119
ExecutionTime = 9.87 s  ClockTime = 10 s

Courant Number mean: 0.14990843 max: 0.50215298
deltaT = 1.9355394e-05
Time = 0.00041908

Correcting burningSolid
diagonal:  Solving for alphaGas, Initial residual = 0, Final residual = 0, No Iterations 0
Min/Max Gas Transfer Weights: 0, 6.9880646e-07
Min/Max Solid Transfer Weights: 0, 9.4840358e-07
Solving UEqn
Min,max U = 0, 18.743119
DILUPBiCG:  Solving for N2, Initial residual = 0, Final residual = 0, No Iterations 0
DILUPBiCG:  Solving for EMg, Initial residual = 0.020478347, Final residual = 2.848011e-09, No Iterations 3
Min,max for N2 = 0, 0
Min,max for EMs = 0, 1
Min,max for EMg = 0, 1
DILUPBiCG:  Solving for hs, Initial residual = 0.037661994, Final residual = 2.9383005e-09, No Iterations 3
T gas min/max   = 0, 303.5559
DICPCG:  Solving for Ts, Initial residual = 0.0001121678, Final residual = 7.2454031e-10, No Iterations 11
T solid min/max   = 0, 300.00715
Solving pEqn
Min,max Uest = 0, 18.830528
GAMG:  Solving for p, Initial residual = 0.037859268, Final residual = 0.0014277242, No Iterations 2
Min,max p = 100000, 103373.7
time step continuity errors : sum local = 0.00089488526, global = -0.00085968649, cumulative = -0.019387963
Min,max U = 0, 18.862033
Solving pEqn
Min,max Uest = 0, 18.84048
GAMGPCG:  Solving for p, Initial residual = 0.0015473479, Final residual = 3.159027e-09, No Iterations 6
Min,max p = 100000, 103377.06
time step continuity errors : sum local = 2.9501725e-05, global = -1.9515862e-05, cumulative = -0.019407479
Min,max U = 0, 18.877634
ExecutionTime = 10.4 s  ClockTime = 11 s

Courant Number mean: 0.15535811 max: 0.50116805
deltaT = 1.9277505e-05
Time = 0.000438357

Correcting burningSolid
diagonal:  Solving for alphaGas, Initial residual = 0, Final residual = 0, No Iterations 0
Min/Max Gas Transfer Weights: 0, 6.9880646e-07
Min/Max Solid Transfer Weights: 0, 9.4840358e-07
Solving UEqn
Min,max U = 0, 18.877634
DILUPBiCG:  Solving for N2, Initial residual = 0, Final residual = 0, No Iterations 0
DILUPBiCG:  Solving for EMg, Initial residual = 0.020336284, Final residual = 2.8857013e-09, No Iterations 3
Min,max for N2 = 0, 0
Min,max for EMs = 0, 1
Min,max for EMg = 0, 1
DILUPBiCG:  Solving for hs, Initial residual = 0.038403606, Final residual = 2.3137618e-09, No Iterations 3
T gas min/max   = 0, 303.57128
DICPCG:  Solving for Ts, Initial residual = 0.00011234894, Final residual = 7.3703531e-10, No Iterations 11
T solid min/max   = 0, 300.00758
Solving pEqn
Min,max Uest = 0, 18.968876
GAMG:  Solving for p, Initial residual = 0.038837771, Final residual = 0.0014155262, No Iterations 2
Min,max p = 100000, 103387.42
time step continuity errors : sum local = 0.0008915776, global = -0.00085098071, cumulative = -0.02025846
Min,max U = 0, 18.959283
Solving pEqn
Min,max Uest = 0, 18.976765
GAMGPCG:  Solving for p, Initial residual = 0.0015283062, Final residual = 3.1009972e-09, No Iterations 6
Min,max p = 100000, 103390.47
time step continuity errors : sum local = 2.7464089e-05, global = -1.7752467e-05, cumulative = -0.020276212
Min,max U = 0, 18.971675
ExecutionTime = 10.95 s  ClockTime = 11 s

Courant Number mean: 0.16092497 max: 0.50066045
deltaT = 1.9238718e-05
Time = 0.000457596

Correcting burningSolid
diagonal:  Solving for alphaGas, Initial residual = 0, Final residual = 0, No Iterations 0
Min/Max Gas Transfer Weights: 0, 6.9880646e-07
Min/Max Solid Transfer Weights: 0, 9.4840358e-07
Solving UEqn
Min,max U = 0, 18.971675
DILUPBiCG:  Solving for N2, Initial residual = 0, Final residual = 0, No Iterations 0
DILUPBiCG:  Solving for EMg, Initial residual = 0.020253102, Final residual = 2.7111064e-09, No Iterations 3
Min,max for N2 = 0, 0
Min,max for EMs = 0, 1
Min,max for EMg = 0, 1
DILUPBiCG:  Solving for hs, Initial residual = 0.039543442, Final residual = 2.0478812e-09, No Iterations 3
T gas min/max   = 0, 303.57944
DICPCG:  Solving for Ts, Initial residual = 0.00011255223, Final residual = 7.4807507e-10, No Iterations 11
T solid min/max   = 0, 300.008
Solving pEqn
Min,max Uest = 0, 19.063015
GAMG:  Solving for p, Initial residual = 0.040408498, Final residual = 0.0014182177, No Iterations 2
Min,max p = 100000, 103389.44
time step continuity errors : sum local = 0.00089335945, global = -0.00084067129, cumulative = -0.021116883
Min,max U = 0, 19.029513
Solving pEqn
Min,max Uest = 0, 19.068212
GAMGPCG:  Solving for p, Initial residual = 0.0015230327, Final residual = 2.9229207e-09, No Iterations 6
Min,max p = 100000, 103392.14
time step continuity errors : sum local = 2.6118533e-05, global = -1.6782052e-05, cumulative = -0.021133666
Min,max U = 0, 19.038242
ExecutionTime = 11.5 s  ClockTime = 12 s

Courant Number mean: 0.16663411 max: 0.50095261
deltaT = 1.9200008e-05
Time = 0.000476796

Correcting burningSolid
diagonal:  Solving for alphaGas, Initial residual = 0, Final residual = 0, No Iterations 0
Min/Max Gas Transfer Weights: 0, 6.9880646e-07
Min/Max Solid Transfer Weights: 0, 9.4840358e-07
Solving UEqn
Min,max U = 0, 19.038242
DILUPBiCG:  Solving for N2, Initial residual = 0, Final residual = 0, No Iterations 0
DILUPBiCG:  Solving for EMg, Initial residual = 0.020240691, Final residual = 2.6715489e-09, No Iterations 3
Min,max for N2 = 0, 0
Min,max for EMs = 0, 1
Min,max for EMg = 0, 1
DILUPBiCG:  Solving for hs, Initial residual = 0.041106952, Final residual = 1.9787562e-09, No Iterations 3
T gas min/max   = 0, 303.57791
DICPCG:  Solving for Ts, Initial residual = 0.00011265105, Final residual = 7.4891115e-10, No Iterations 11
T solid min/max   = 0, 300.00841
Solving pEqn
Min,max Uest = 0, 19.124817
GAMG:  Solving for p, Initial residual = 0.042441489, Final residual = 0.0014209619, No Iterations 2
Min,max p = 100000, 103378.54
time step continuity errors : sum local = 0.00089189497, global = -0.00082662431, cumulative = -0.02196029
Min,max U = 0, 19.095762
Solving pEqn
Min,max Uest = 0, 19.127686
GAMGPCG:  Solving for p, Initial residual = 0.0015180767, Final residual = 2.8779451e-09, No Iterations 6
Min,max p = 100000, 103380.86
time step continuity errors : sum local = 2.4940974e-05, global = -1.6312331e-05, cumulative = -0.021976602
Min,max U = 0, 19.09897
ExecutionTime = 12.05 s  ClockTime = 13 s

Courant Number mean: 0.17214825 max: 0.50120091
deltaT = 1.91229e-05
Time = 0.000495919

Correcting burningSolid
diagonal:  Solving for alphaGas, Initial residual = 0, Final residual = 0, No Iterations 0
Min/Max Gas Transfer Weights: 0, 6.9880646e-07
Min/Max Solid Transfer Weights: 0, 9.4840358e-07
Solving UEqn
Min,max U = 0, 19.09897
DILUPBiCG:  Solving for N2, Initial residual = 0, Final residual = 0, No Iterations 0
DILUPBiCG:  Solving for EMg, Initial residual = 0.020189186, Final residual = 2.5879139e-09, No Iterations 3
Min,max for N2 = 0, 0
Min,max for EMs = 0, 1
Min,max for EMg = 0, 1
DILUPBiCG:  Solving for hs, Initial residual = 0.042794014, Final residual = 1.9243206e-09, No Iterations 3
T gas min/max   = 0, 303.56566
DICPCG:  Solving for Ts, Initial residual = 0.00011247245, Final residual = 7.3550221e-10, No Iterations 11
T solid min/max   = 0, 300.00882
Solving pEqn
Min,max Uest = 0, 19.165024
GAMG:  Solving for p, Initial residual = 0.044543349, Final residual = 0.0014287669, No Iterations 2
Min,max p = 100000, 103355.16
time step continuity errors : sum local = 0.00088153785, global = -0.00080695896, cumulative = -0.022783561
Min,max U = 0, 19.173075
Solving pEqn
Min,max Uest = 0, 19.167297
GAMGPCG:  Solving for p, Initial residual = 0.0015273712, Final residual = 2.6363112e-09, No Iterations 6
Min,max p = 100000, 103357.14
time step continuity errors : sum local = 2.3824819e-05, global = -1.5962763e-05, cumulative = -0.022799524
Min,max U = 0, 19.176376
ExecutionTime = 12.6 s  ClockTime = 13 s

Courant Number mean: 0.17708569 max: 0.50046089
deltaT = 1.90845e-05
Time = 0.000515003

Correcting burningSolid
diagonal:  Solving for alphaGas, Initial residual = 0, Final residual = 0, No Iterations 0
Min/Max Gas Transfer Weights: 0, 6.9880646e-07
Min/Max Solid Transfer Weights: 0, 9.4840358e-07
Solving UEqn
Min,max U = 0, 19.176376
DILUPBiCG:  Solving for N2, Initial residual = 0, Final residual = 0, No Iterations 0
DILUPBiCG:  Solving for EMg, Initial residual = 0.020031288, Final residual = 2.521505e-09, No Iterations 3
Min,max for N2 = 0, 0
Min,max for EMs = 0, 1
Min,max for EMg = 0, 1
DILUPBiCG:  Solving for hs, Initial residual = 0.044563282, Final residual = 1.8582825e-09, No Iterations 3
T gas min/max   = 0, 303.54359
DICPCG:  Solving for Ts, Initial residual = 0.00011248593, Final residual = 7.29585e-10, No Iterations 11
T solid min/max   = 0, 300.00924
Solving pEqn
Min,max Uest = 0, 19.194229
GAMG:  Solving for p, Initial residual = 0.046860054, Final residual = 0.0014676126, No Iterations 2
Min,max p = 100000, 103321.27
time step continuity errors : sum local = 0.00086515004, global = -0.00078436432, cumulative = -0.023583888
Min,max U = 0, 19.251987
Solving pEqn
Min,max Uest = 0, 19.197215
GAMGPCG:  Solving for p, Initial residual = 0.0015719, Final residual = 2.6066077e-09, No Iterations 6
Min,max p = 100000, 103322.81
time step continuity errors : sum local = 2.3185263e-05, global = -1.5795215e-05, cumulative = -0.023599683
Min,max U = 0, 19.255347
ExecutionTime = 13.14 s  ClockTime = 14 s

Courant Number mean: 0.18213243 max: 0.50075838
deltaT = 1.9046178e-05
Time = 0.00053405

Correcting burningSolid
diagonal:  Solving for alphaGas, Initial residual = 0, Final residual = 0, No Iterations 0
Min/Max Gas Transfer Weights: 0, 6.9880646e-07
Min/Max Solid Transfer Weights: 0, 9.4840358e-07
Solving UEqn
Min,max U = 0, 19.255347
DILUPBiCG:  Solving for N2, Initial residual = 0, Final residual = 0, No Iterations 0
DILUPBiCG:  Solving for EMg, Initial residual = 0.019708815, Final residual = 2.4560633e-09, No Iterations 3
Min,max for N2 = 0, 0
Min,max for EMs = 0, 1
Min,max for EMg = 0, 1
DILUPBiCG:  Solving for hs, Initial residual = 0.046294733, Final residual = 1.7077529e-09, No Iterations 3
T gas min/max   = 0, 303.51473
DICPCG:  Solving for Ts, Initial residual = 0.00011245398, Final residual = 7.2197188e-10, No Iterations 11
T solid min/max   = 0, 300.00965
Solving pEqn
Min,max Uest = 0, 19.219561
GAMG:  Solving for p, Initial residual = 0.049313468, Final residual = 0.0015321096, No Iterations 2
Min,max p = 100000, 103280.86
time step continuity errors : sum local = 0.00084095974, global = -0.00075699385, cumulative = -0.024356677
Min,max U = 0, 19.331288
Solving pEqn
Min,max Uest = 0, 19.223806
GAMGPCG:  Solving for p, Initial residual = 0.0016333993, Final residual = 2.5262785e-09, No Iterations 6
Min,max p = 100000, 103280.82
time step continuity errors : sum local = 2.2666248e-05, global = -1.5497965e-05, cumulative = -0.024372175
Min,max U = 0, 19.334638
ExecutionTime = 13.71 s  ClockTime = 14 s

Courant Number mean: 0.18692593 max: 0.50104014
deltaT = 1.896984e-05
Time = 0.000553019

Correcting burningSolid
diagonal:  Solving for alphaGas, Initial residual = 0, Final residual = 0, No Iterations 0
Min/Max Gas Transfer Weights: 0, 6.9880646e-07
Min/Max Solid Transfer Weights: 0, 9.4840358e-07
Solving UEqn
Min,max U = 0, 19.334638
DILUPBiCG:  Solving for N2, Initial residual = 0, Final residual = 0, No Iterations 0
DILUPBiCG:  Solving for EMg, Initial residual = 0.019180506, Final residual = 2.3692799e-09, No Iterations 3
Min,max for N2 = 0, 0
Min,max for EMs = 0, 1
Min,max for EMg = 0, 1
DILUPBiCG:  Solving for hs, Initial residual = 0.047811883, Final residual = 9.0348161e-07, No Iterations 2
T gas min/max   = 0, 303.48005
DICPCG:  Solving for Ts, Initial residual = 0.00011212866, Final residual = 7.0517052e-10, No Iterations 11
T solid min/max   = 0, 300.01006
Solving pEqn
Min,max Uest = 0, 19.2809
GAMG:  Solving for p, Initial residual = 0.051820218, Final residual = 0.0015994577, No Iterations 2
Min,max p = 100000, 103283.23
time step continuity errors : sum local = 0.00080794335, global = -0.00072350553, cumulative = -0.025095681
Min,max U = 0, 19.40798
Solving pEqn
Min,max Uest = 0, 19.282167
GAMGPCG:  Solving for p, Initial residual = 0.0017101417, Final residual = 1.8636118e-09, No Iterations 6
Min,max p = 100000, 103285.55
time step continuity errors : sum local = 2.1815063e-05, global = -1.4730064e-05, cumulative = -0.025110411
Min,max U = 0, 19.410912
ExecutionTime = 14.25 s  ClockTime = 15 s

Courant Number mean: 0.1910408 max: 0.50022628
deltaT = 1.8931825e-05
Time = 0.000571951

Correcting burningSolid
diagonal:  Solving for alphaGas, Initial residual = 0, Final residual = 0, No Iterations 0
Min/Max Gas Transfer Weights: 0, 6.9880646e-07
Min/Max Solid Transfer Weights: 0, 9.4840358e-07
Solving UEqn
Min,max U = 0, 19.410912
DILUPBiCG:  Solving for N2, Initial residual = 0, Final residual = 0, No Iterations 0
DILUPBiCG:  Solving for EMg, Initial residual = 0.018529818, Final residual = 2.3154918e-09, No Iterations 3
Min,max for N2 = 0, 0
Min,max for EMs = 0, 1
Min,max for EMg = 0, 1
DILUPBiCG:  Solving for hs, Initial residual = 0.049312896, Final residual = 7.5055533e-07, No Iterations 2
T gas min/max   = 0, 303.4438
DICPCG:  Solving for Ts, Initial residual = 0.00011193498, Final residual = 6.9613458e-10, No Iterations 11
T solid min/max   = 0, 300.01048
Solving pEqn
Min,max Uest = 0, 19.354148
GAMG:  Solving for p, Initial residual = 0.054636693, Final residual = 0.0016756463, No Iterations 2
Min,max p = 100000, 103285.4
time step continuity errors : sum local = 0.00077087541, global = -0.00068670981, cumulative = -0.025797121
Min,max U = 0, 19.478933
Solving pEqn
Min,max Uest = 0, 19.355421
GAMGPCG:  Solving for p, Initial residual = 0.0018144919, Final residual = 1.7914841e-09, No Iterations 6
Min,max p = 100000, 103287.08
time step continuity errors : sum local = 2.0770736e-05, global = -1.3655073e-05, cumulative = -0.025810776
Min,max U = 0, 19.481323
ExecutionTime = 14.79 s  ClockTime = 15 s

Courant Number mean: 0.19522041 max: 0.50024354
deltaT = 1.8893885e-05
Time = 0.000590845

Correcting burningSolid
diagonal:  Solving for alphaGas, Initial residual = 0, Final residual = 0, No Iterations 0
Min/Max Gas Transfer Weights: 0, 6.9880646e-07
Min/Max Solid Transfer Weights: 0, 9.4840358e-07
Solving UEqn
Min,max U = 0, 19.481323
DILUPBiCG:  Solving for N2, Initial residual = 0, Final residual = 0, No Iterations 0
DILUPBiCG:  Solving for EMg, Initial residual = 0.017747559, Final residual = 2.271586e-09, No Iterations 3
Min,max for N2 = 0, 0
Min,max for EMs = 0, 1
Min,max for EMg = 0, 1
DILUPBiCG:  Solving for hs, Initial residual = 0.050629792, Final residual = 6.6146608e-07, No Iterations 2
T gas min/max   = 0, 303.40749
DICPCG:  Solving for Ts, Initial residual = 0.00011162632, Final residual = 6.8701423e-10, No Iterations 11
T solid min/max   = 0, 300.01089
Solving pEqn
Min,max Uest = 0, 19.41966
GAMG:  Solving for p, Initial residual = 0.057854695, Final residual = 0.0017339825, No Iterations 2
Min,max p = 100000, 103281.61
time step continuity errors : sum local = 0.00073025667, global = -0.00064548722, cumulative = -0.026456263
Min,max U = 0, 19.538974
Solving pEqn
Min,max Uest = 0, 19.420268
GAMGPCG:  Solving for p, Initial residual = 0.0019160671, Final residual = 1.7418515e-09, No Iterations 6
Min,max p = 100000, 103282.68
time step continuity errors : sum local = 1.9229117e-05, global = -1.2118224e-05, cumulative = -0.026468381
Min,max U = 0, 19.540047
ExecutionTime = 15.33 s  ClockTime = 16 s

Courant Number mean: 0.19906229 max: 0.50001175
deltaT = 1.8856022e-05
Time = 0.000609701

Correcting burningSolid
diagonal:  Solving for alphaGas, Initial residual = 0, Final residual = 0, No Iterations 0
Min/Max Gas Transfer Weights: 0, 6.9880646e-07
Min/Max Solid Transfer Weights: 0, 9.4840358e-07
Solving UEqn
Min,max U = 0, 19.540047
DILUPBiCG:  Solving for N2, Initial residual = 0, Final residual = 0, No Iterations 0
DILUPBiCG:  Solving for EMg, Initial residual = 0.016856469, Final residual = 2.2391536e-09, No Iterations 3
Min,max for N2 = 0, 0
Min,max for EMs = 0, 1
Min,max for EMg = 0, 1
DILUPBiCG:  Solving for hs, Initial residual = 0.051866171, Final residual = 5.9610644e-07, No Iterations 2
T gas min/max   = 0, 303.39994
DICPCG:  Solving for Ts, Initial residual = 0.00011119196, Final residual = 6.7798077e-10, No Iterations 11
T solid min/max   = 0, 300.0113
Solving pEqn
Min,max Uest = 0, 19.473782
GAMG:  Solving for p, Initial residual = 0.061442862, Final residual = 0.0017642488, No Iterations 2
Min,max p = 100000, 103272.46
time step continuity errors : sum local = 0.00068521895, global = -0.00060025835, cumulative = -0.02706864
Min,max U = 0, 19.584833
Solving pEqn
Min,max Uest = 0, 19.472925
GAMGPCG:  Solving for p, Initial residual = 0.0020086815, Final residual = 1.623562e-09, No Iterations 6
Min,max p = 100000, 103272.95
time step continuity errors : sum local = 1.7344797e-05, global = -1.0296512e-05, cumulative = -0.027078936
Min,max U = 0, 19.583905
ExecutionTime = 15.87 s  ClockTime = 16 s

Courant Number mean: 0.20254009 max: 0.49947604
deltaT = 1.8856022e-05
Time = 0.000628557

Correcting burningSolid
diagonal:  Solving for alphaGas, Initial residual = 0, Final residual = 0, No Iterations 0
Min/Max Gas Transfer Weights: 0, 6.9880646e-07
Min/Max Solid Transfer Weights: 0, 9.4840358e-07
Solving UEqn
Min,max U = 0, 19.583905
DILUPBiCG:  Solving for N2, Initial residual = 0, Final residual = 0, No Iterations 0
DILUPBiCG:  Solving for EMg, Initial residual = 0.015894006, Final residual = 2.2363397e-09, No Iterations 3
Min,max for N2 = 0, 0
Min,max for EMs = 0, 1
Min,max for EMg = 0, 1
DILUPBiCG:  Solving for hs, Initial residual = 0.053096318, Final residual = 5.2461789e-07, No Iterations 2
T gas min/max   = 0, 303.39197
DICPCG:  Solving for Ts, Initial residual = 0.00011085199, Final residual = 6.7641834e-10, No Iterations 11
T solid min/max   = 0, 300.01171
Solving pEqn
Min,max Uest = 0, 19.512399
GAMG:  Solving for p, Initial residual = 0.065478171, Final residual = 0.0017932904, No Iterations 2
Min,max p = 100000, 103258.85
time step continuity errors : sum local = 0.0006375177, global = -0.00055262556, cumulative = -0.027631562
Min,max U = 0, 19.61381
Solving pEqn
Min,max Uest = 0, 19.509725
GAMGPCG:  Solving for p, Initial residual = 0.0021324908, Final residual = 2.0345652e-09, No Iterations 6
Min,max p = 100000, 103258.87
time step continuity errors : sum local = 1.5506041e-05, global = -8.5042604e-06, cumulative = -0.027640066
Min,max U = 0, 19.610602
ExecutionTime = 16.42 s  ClockTime = 17 s

Courant Number mean: 0.20605425 max: 0.49960634
deltaT = 1.8856022e-05
Time = 0.000647413

Correcting burningSolid
diagonal:  Solving for alphaGas, Initial residual = 0, Final residual = 0, No Iterations 0
Min/Max Gas Transfer Weights: 0, 6.9880646e-07
Min/Max Solid Transfer Weights: 0, 9.4840358e-07
Solving UEqn
Min,max U = 0, 19.610602
DILUPBiCG:  Solving for N2, Initial residual = 0, Final residual = 0, No Iterations 0
DILUPBiCG:  Solving for EMg, Initial residual = 0.014834914, Final residual = 2.2392772e-09, No Iterations 3
Min,max for N2 = 0, 0
Min,max for EMs = 0, 1
Min,max for EMg = 0, 1
DILUPBiCG:  Solving for hs, Initial residual = 0.054052934, Final residual = 4.467226e-07, No Iterations 2
T gas min/max   = 0, 303.38268
DICPCG:  Solving for Ts, Initial residual = 0.00011038951, Final residual = 6.748831e-10, No Iterations 11
T solid min/max   = 0, 300.01211
Solving pEqn
Min,max Uest = 0, 19.532686
GAMG:  Solving for p, Initial residual = 0.069887058, Final residual = 0.0018328588, No Iterations 2
Min,max p = 100000, 103241.97
time step continuity errors : sum local = 0.00058672274, global = -0.00050227684, cumulative = -0.028142343
Min,max U = 0, 19.623719
Solving pEqn
Min,max Uest = 0, 19.528891
GAMGPCG:  Solving for p, Initial residual = 0.0023059694, Final residual = 2.1777218e-09, No Iterations 6
Min,max p = 100000, 103241.68
time step continuity errors : sum local = 1.3770424e-05, global = -6.8515012e-06, cumulative = -0.028149194
Min,max U = 0, 19.618934
ExecutionTime = 16.97 s  ClockTime = 18 s

Courant Number mean: 0.20918711 max: 0.49939385
deltaT = 1.8856022e-05
Time = 0.000666269

Correcting burningSolid
diagonal:  Solving for alphaGas, Initial residual = 0, Final residual = 0, No Iterations 0
Min/Max Gas Transfer Weights: 0, 6.9880646e-07
Min/Max Solid Transfer Weights: 0, 9.4840358e-07
Solving UEqn
Min,max U = 0, 19.618934
DILUPBiCG:  Solving for N2, Initial residual = 0, Final residual = 0, No Iterations 0
DILUPBiCG:  Solving for EMg, Initial residual = 0.013702194, Final residual = 7.0753419e-07, No Iterations 2
Min,max for N2 = 0, 0
Min,max for EMs = 0, 1
Min,max for EMg = 0, 1
DILUPBiCG:  Solving for hs, Initial residual = 0.054649138, Final residual = 3.8577894e-07, No Iterations 2
T gas min/max   = 0, 303.37217
DICPCG:  Solving for Ts, Initial residual = 0.00010982039, Final residual = 6.7329681e-10, No Iterations 11
T solid min/max   = 0, 300.01251
Solving pEqn
Min,max Uest = 0, 19.534381
GAMG:  Solving for p, Initial residual = 0.07475333, Final residual = 0.0019648274, No Iterations 2
Min,max p = 100000, 103224.2
time step continuity errors : sum local = 0.00053413483, global = -0.00045036871, cumulative = -0.028599563
Min,max U = 0, 19.61517
Solving pEqn
Min,max Uest = 0, 19.530352
GAMGPCG:  Solving for p, Initial residual = 0.0026108472, Final residual = 2.0962014e-09, No Iterations 6
Min,max p = 100000, 103225.42
time step continuity errors : sum local = 1.2345841e-05, global = -5.5058618e-06, cumulative = -0.028605069
Min,max U = 0, 19.609715
ExecutionTime = 17.52 s  ClockTime = 18 s

Courant Number mean: 0.21193401 max: 0.49885253
deltaT = 1.8894192e-05
Time = 0.000685163

Correcting burningSolid
diagonal:  Solving for alphaGas, Initial residual = 0, Final residual = 0, No Iterations 0
Min/Max Gas Transfer Weights: 0, 6.9880646e-07
Min/Max Solid Transfer Weights: 0, 9.4840358e-07
Solving UEqn
Min,max U = 0, 19.609715
DILUPBiCG:  Solving for N2, Initial residual = 0, Final residual = 0, No Iterations 0
DILUPBiCG:  Solving for EMg, Initial residual = 0.012556094, Final residual = 5.0413489e-07, No Iterations 2
Min,max for N2 = 0, 0
Min,max for EMs = 0, 1
Min,max for EMg = 0, 1
DILUPBiCG:  Solving for hs, Initial residual = 0.054893959, Final residual = 3.4208212e-07, No Iterations 2
T gas min/max   = 0, 303.35973
DICPCG:  Solving for Ts, Initial residual = 0.00010939002, Final residual = 6.7852911e-10, No Iterations 11
T solid min/max   = 0, 300.01291
Solving pEqn
Min,max Uest = 0, 19.519528
GAMG:  Solving for p, Initial residual = 0.080322851, Final residual = 0.0022469283, No Iterations 2
Min,max p = 100000, 103220.02
time step continuity errors : sum local = 0.00048220607, global = -0.00039900174, cumulative = -0.02900407
Min,max U = 0, 19.590789
Solving pEqn
Min,max Uest = 0, 19.515479
GAMGPCG:  Solving for p, Initial residual = 0.0030439086, Final residual = 3.1148828e-09, No Iterations 6
Min,max p = 100000, 103221.03
time step continuity errors : sum local = 1.1260746e-05, global = -4.4959853e-06, cumulative = -0.029008566
Min,max U = 0, 19.584967
ExecutionTime = 18.07 s  ClockTime = 19 s

Courant Number mean: 0.21472344 max: 0.49902752
deltaT = 1.8894192e-05
Time = 0.000704058

Correcting burningSolid
diagonal:  Solving for alphaGas, Initial residual = 0, Final residual = 0, No Iterations 0
Min/Max Gas Transfer Weights: 0, 6.9880646e-07
Min/Max Solid Transfer Weights: 0, 9.4840358e-07
Solving UEqn
Min,max U = 0, 19.584967
DILUPBiCG:  Solving for N2, Initial residual = 0, Final residual = 0, No Iterations 0
DILUPBiCG:  Solving for EMg, Initial residual = 0.011377314, Final residual = 3.4204512e-07, No Iterations 2
Min,max for N2 = 0, 0
Min,max for EMs = 0, 1
Min,max for EMg = 0, 1
DILUPBiCG:  Solving for hs, Initial residual = 0.054558612, Final residual = 3.0156837e-07, No Iterations 2
T gas min/max   = 0, 303.34544
DICPCG:  Solving for Ts, Initial residual = 0.00010868035, Final residual = 6.7580303e-10, No Iterations 11
T solid min/max   = 0, 300.0133
Solving pEqn
Min,max Uest = 0, 19.489609
GAMG:  Solving for p, Initial residual = 0.086428957, Final residual = 0.0026141731, No Iterations 2
Min,max p = 100000, 103214.65
time step continuity errors : sum local = 0.0004304368, global = -0.00034814848, cumulative = -0.029356715
Min,max U = 0, 19.552654
Solving pEqn
Min,max Uest = 0, 19.485569
GAMGPCG:  Solving for p, Initial residual = 0.003556194, Final residual = 3.7998976e-09, No Iterations 6
Min,max p = 100000, 103215.46
time step continuity errors : sum local = 1.0397772e-05, global = -3.6143627e-06, cumulative = -0.029360329
Min,max U = 0, 19.546512
ExecutionTime = 18.61 s  ClockTime = 19 s

Courant Number mean: 0.21669172 max: 0.4982551
deltaT = 1.8932673e-05
Time = 0.00072299

Correcting burningSolid
diagonal:  Solving for alphaGas, Initial residual = 0, Final residual = 0, No Iterations 0
Min/Max Gas Transfer Weights: 0, 6.9880646e-07
Min/Max Solid Transfer Weights: 0, 9.4840358e-07
Solving UEqn
Min,max U = 0, 19.546512
DILUPBiCG:  Solving for N2, Initial residual = 0, Final residual = 0, No Iterations 0
DILUPBiCG:  Solving for EMg, Initial residual = 0.010250601, Final residual = 2.3248008e-07, No Iterations 2
Min,max for N2 = 0, 0
Min,max for EMs = 0, 1
Min,max for EMg = 0, 1
DILUPBiCG:  Solving for hs, Initial residual = 0.053705976, Final residual = 2.6353499e-07, No Iterations 2
T gas min/max   = 0, 303.32967
DICPCG:  Solving for Ts, Initial residual = 0.00010815887, Final residual = 6.7972181e-10, No Iterations 11
T solid min/max   = 0, 300.01369
Solving pEqn
Min,max Uest = 0, 19.445973
GAMG:  Solving for p, Initial residual = 0.093693391, Final residual = 0.0030733893, No Iterations 2
Min,max p = 100000, 103208.29
time step continuity errors : sum local = 0.00038232522, global = -0.00030046252, cumulative = -0.029660792
Min,max U = 0, 19.502262
Solving pEqn
Min,max Uest = 0, 19.44246
GAMGPCG:  Solving for p, Initial residual = 0.0041873247, Final residual = 5.1711779e-09, No Iterations 6
Min,max p = 100000, 103208.92
time step continuity errors : sum local = 9.9759896e-06, global = -2.9075839e-06, cumulative = -0.029663699
Min,max U = 0, 19.496374
ExecutionTime = 19.15 s  ClockTime = 20 s

Courant Number mean: 0.21872255 max: 0.49830405
deltaT = 1.897139e-05
Time = 0.000741962

Correcting burningSolid
diagonal:  Solving for alphaGas, Initial residual = 0, Final residual = 0, No Iterations 0
Min/Max Gas Transfer Weights: 0, 6.9880646e-07
Min/Max Solid Transfer Weights: 0, 9.4840358e-07
Solving UEqn
Min,max U = 0, 19.496374
DILUPBiCG:  Solving for N2, Initial residual = 0, Final residual = 0, No Iterations 0
DILUPBiCG:  Solving for EMg, Initial residual = 0.0091934896, Final residual = 1.6030343e-07, No Iterations 2
Min,max for N2 = 0, 0
Min,max for EMs = 0, 1
Min,max for EMg = 0, 1
DILUPBiCG:  Solving for hs, Initial residual = 0.052125681, Final residual = 2.2424051e-07, No Iterations 2
T gas min/max   = 0, 303.31387
DICPCG:  Solving for Ts, Initial residual = 0.00010762985, Final residual = 6.8301036e-10, No Iterations 11
T solid min/max   = 0, 300.01408
Solving pEqn
Min,max Uest = 0, 19.392536
GAMG:  Solving for p, Initial residual = 0.10155457, Final residual = 0.0035934851, No Iterations 2
Min,max p = 100000, 103201.17
time step continuity errors : sum local = 0.00033758632, global = -0.00025628799, cumulative = -0.029919987
Min,max U = 0, 19.443788
Solving pEqn
Min,max Uest = 0, 19.38961
GAMGPCG:  Solving for p, Initial residual = 0.0048988259, Final residual = 5.415144e-09, No Iterations 6
Min,max p = 100000, 103201.64
time step continuity errors : sum local = 9.508597e-06, global = -2.2662613e-06, cumulative = -0.029922254
Min,max U = 0, 19.438271
ExecutionTime = 19.69 s  ClockTime = 20 s

Courant Number mean: 0.22039889 max: 0.49820801
deltaT = 1.9010346e-05
Time = 0.000760972

Correcting burningSolid
diagonal:  Solving for alphaGas, Initial residual = 0, Final residual = 0, No Iterations 0
Min/Max Gas Transfer Weights: 0, 6.9880646e-07
Min/Max Solid Transfer Weights: 0, 9.4840358e-07
Solving UEqn
Min,max U = 0, 19.438271
DILUPBiCG:  Solving for N2, Initial residual = 0, Final residual = 0, No Iterations 0
DILUPBiCG:  Solving for EMg, Initial residual = 0.0082075122, Final residual = 1.1768086e-07, No Iterations 2
Min,max for N2 = 0, 0
Min,max for EMs = 0, 1
Min,max for EMg = 0, 1
DILUPBiCG:  Solving for hs, Initial residual = 0.049756371, Final residual = 1.8641858e-07, No Iterations 2
T gas min/max   = 0, 303.29842
DICPCG:  Solving for Ts, Initial residual = 0.00010711374, Final residual = 6.8571718e-10, No Iterations 11
T solid min/max   = 0, 300.01446
Solving pEqn
Min,max Uest = 0, 19.332232
GAMG:  Solving for p, Initial residual = 0.10917927, Final residual = 0.0041242889, No Iterations 2
Min,max p = 100000, 103196.22
time step continuity errors : sum local = 0.00029574158, global = -0.00021642352, cumulative = -0.030138677
Min,max U = 0, 19.379982
Solving pEqn
Min,max Uest = 0, 19.32994
GAMGPCG:  Solving for p, Initial residual = 0.0053025063, Final residual = 8.288436e-09, No Iterations 6
Min,max p = 100000, 103197.61
time step continuity errors : sum local = 8.8855252e-06, global = -1.6524071e-06, cumulative = -0.03014033
Min,max U = 0, 19.374942
ExecutionTime = 20.24 s  ClockTime = 21 s

Courant Number mean: 0.2217472 max: 0.49801562
deltaT = 1.9049542e-05
Time = 0.000780022

Correcting burningSolid
diagonal:  Solving for alphaGas, Initial residual = 0, Final residual = 0, No Iterations 0
Min/Max Gas Transfer Weights: 0, 6.9880646e-07
Min/Max Solid Transfer Weights: 0, 9.4840358e-07
Solving UEqn
Min,max U = 0, 19.374942
DILUPBiCG:  Solving for N2, Initial residual = 0, Final residual = 0, No Iterations 0
DILUPBiCG:  Solving for EMg, Initial residual = 0.0072845059, Final residual = 9.7050472e-08, No Iterations 2
Min,max for N2 = 0, 0
Min,max for EMs = 0, 1
Min,max for EMg = 0, 1
DILUPBiCG:  Solving for hs, Initial residual = 0.046468248, Final residual = 2.1129241e-07, No Iterations 2
T gas min/max   = 0, 303.29248
DICPCG:  Solving for Ts, Initial residual = 0.00010662649, Final residual = 6.8791431e-10, No Iterations 11
T solid min/max   = 0, 300.01484
Solving pEqn
Min,max Uest = 0, 19.267764
GAMG:  Solving for p, Initial residual = 0.11428755, Final residual = 0.0045330551, No Iterations 2
Min,max p = 100000, 103207.48
time step continuity errors : sum local = 0.00025667297, global = -0.00018124802, cumulative = -0.030321578
Min,max U = 0, 19.313601
Solving pEqn
Min,max Uest = 0, 19.266213
GAMGPCG:  Solving for p, Initial residual = 0.0052375785, Final residual = 9.2466862e-09, No Iterations 6
Min,max p = 100000, 103208.48
time step continuity errors : sum local = 8.1088639e-06, global = -1.1310803e-06, cumulative = -0.030322709
Min,max U = 0, 19.309208
ExecutionTime = 20.79 s  ClockTime = 21 s

Courant Number mean: 0.22280129 max: 0.49777351
deltaT = 1.9128586e-05
Time = 0.00079915

Correcting burningSolid
diagonal:  Solving for alphaGas, Initial residual = 0, Final residual = 0, No Iterations 0
Min/Max Gas Transfer Weights: 0, 6.9880646e-07
Min/Max Solid Transfer Weights: 0, 9.4840358e-07
Solving UEqn
Min,max U = 0, 19.309208
DILUPBiCG:  Solving for N2, Initial residual = 0, Final residual = 0, No Iterations 0
DILUPBiCG:  Solving for EMg, Initial residual = 0.0064390984, Final residual = 1.0694782e-07, No Iterations 2
Min,max for N2 = 0, 0
Min,max for EMs = 0, 1
Min,max for EMg = 0, 1
DILUPBiCG:  Solving for hs, Initial residual = 0.042302895, Final residual = 2.7105813e-07, No Iterations 2
T gas min/max   = 0, 303.29537
DICPCG:  Solving for Ts, Initial residual = 0.00010640101, Final residual = 6.9738787e-10, No Iterations 11
T solid min/max   = 0, 300.01523
Solving pEqn
Min,max Uest = 0, 19.201872
GAMG:  Solving for p, Initial residual = 0.10734813, Final residual = 0.0044390999, No Iterations 2
Min,max p = 100000, 103227.32
time step continuity errors : sum local = 0.00022088147, global = -0.00015112854, cumulative = -0.030473837
Min,max U = 0, 19.247427
Solving pEqn
Min,max Uest = 0, 19.200993
GAMGPCG:  Solving for p, Initial residual = 0.0047971351, Final residual = 8.9799829e-09, No Iterations 6
Min,max p = 100000, 103227.57
time step continuity errors : sum local = 7.2965226e-06, global = -7.2846094e-07, cumulative = -0.030474566
Min,max U = 0, 19.243667
ExecutionTime = 21.34 s  ClockTime = 22 s

Courant Number mean: 0.22406271 max: 0.49855487
deltaT = 1.9168437e-05
Time = 0.000818319

Correcting burningSolid
diagonal:  Solving for alphaGas, Initial residual = 0, Final residual = 0, No Iterations 0
Min/Max Gas Transfer Weights: 0, 6.9880646e-07
Min/Max Solid Transfer Weights: 0, 9.4840358e-07
Solving UEqn
Min,max U = 0, 19.243667
DILUPBiCG:  Solving for N2, Initial residual = 0, Final residual = 0, No Iterations 0
DILUPBiCG:  Solving for EMg, Initial residual = 0.0056441081, Final residual = 1.3730364e-07, No Iterations 2
Min,max for N2 = 0, 0
Min,max for EMs = 0, 1
Min,max for EMg = 0, 1
DILUPBiCG:  Solving for hs, Initial residual = 0.037119982, Final residual = 3.5755187e-07, No Iterations 2
T gas min/max   = 0, 303.29687
DICPCG:  Solving for Ts, Initial residual = 0.00010600565, Final residual = 6.9905472e-10, No Iterations 11
T solid min/max   = 0, 300.01561
Solving pEqn
Min,max Uest = 0, 19.137344
GAMG:  Solving for p, Initial residual = 0.092379996, Final residual = 0.0039096241, No Iterations 2
Min,max p = 100000, 103251.47
time step continuity errors : sum local = 0.00018769673, global = -0.00012538913, cumulative = -0.030599955
Min,max U = 0, 19.183871
Solving pEqn
Min,max Uest = 0, 19.137035
GAMGPCG:  Solving for p, Initial residual = 0.004063622, Final residual = 6.7526954e-09, No Iterations 6
Min,max p = 100000, 103251.26
time step continuity errors : sum local = 6.4125696e-06, global = -3.7753878e-07, cumulative = -0.030600332
Min,max U = 0, 19.180695
ExecutionTime = 21.88 s  ClockTime = 23 s

Courant Number mean: 0.2246444 max: 0.49833376
deltaT = 1.9208539e-05
Time = 0.000837527

Correcting burningSolid
diagonal:  Solving for alphaGas, Initial residual = 0, Final residual = 0, No Iterations 0
Min/Max Gas Transfer Weights: 0, 6.9880646e-07
Min/Max Solid Transfer Weights: 0, 9.4840358e-07
Solving UEqn
Min,max U = 0, 19.180695
DILUPBiCG:  Solving for N2, Initial residual = 0, Final residual = 0, No Iterations 0
DILUPBiCG:  Solving for EMg, Initial residual = 0.0049214864, Final residual = 1.6621178e-07, No Iterations 2
Min,max for N2 = 0, 0
Min,max for EMs = 0, 1
Min,max for EMg = 0, 1
DILUPBiCG:  Solving for hs, Initial residual = 0.031666075, Final residual = 5.4356753e-07, No Iterations 2
T gas min/max   = 0, 303.29639
DICPCG:  Solving for Ts, Initial residual = 0.00010566884, Final residual = 7.0059968e-10, No Iterations 11
T solid min/max   = 0, 300.01599
Solving pEqn
Min,max Uest = 0, 19.076051
GAMG:  Solving for p, Initial residual = 0.075268233, Final residual = 0.0032340893, No Iterations 2
Min,max p = 100000, 103276.26
time step continuity errors : sum local = 0.00015805617, global = -0.00010399294, cumulative = -0.030704325
Min,max U = 0, 19.124345
Solving pEqn
Min,max Uest = 0, 19.076072
GAMGPCG:  Solving for p, Initial residual = 0.0033897395, Final residual = 5.4976785e-09, No Iterations 6
Min,max p = 100000, 103275.77
time step continuity errors : sum local = 5.5594014e-06, global = -1.4632138e-07, cumulative = -0.030704472
Min,max U = 0, 19.121586
ExecutionTime = 22.42 s  ClockTime = 23 s

Courant Number mean: 0.22504466 max: 0.49817369
deltaT = 1.9248893e-05
Time = 0.000856776

Correcting burningSolid
diagonal:  Solving for alphaGas, Initial residual = 0, Final residual = 0, No Iterations 0
Min/Max Gas Transfer Weights: 0, 6.9880646e-07
Min/Max Solid Transfer Weights: 0, 9.4840358e-07
Solving UEqn
Min,max U = 0, 19.121586
DILUPBiCG:  Solving for N2, Initial residual = 0, Final residual = 0, No Iterations 0
DILUPBiCG:  Solving for EMg, Initial residual = 0.0042808475, Final residual = 1.8463981e-07, No Iterations 2
Min,max for N2 = 0, 0
Min,max for EMs = 0, 1
Min,max for EMg = 0, 1
DILUPBiCG:  Solving for hs, Initial residual = 0.02653754, Final residual = 7.1020821e-07, No Iterations 2
T gas min/max   = 0, 303.29455
DICPCG:  Solving for Ts, Initial residual = 0.00010539488, Final residual = 7.0209887e-10, No Iterations 11
T solid min/max   = 0, 300.01638
Solving pEqn
Min,max Uest = 0, 19.018813
GAMG:  Solving for p, Initial residual = 0.059357362, Final residual = 0.0025756024, No Iterations 2
Min,max p = 100000, 103299.41
time step continuity errors : sum local = 0.00013111811, global = -8.6479609e-05, cumulative = -0.030790951
Min,max U = 0, 19.069389
Solving pEqn
Min,max Uest = 0, 19.01893
GAMGPCG:  Solving for p, Initial residual = 0.0027417622, Final residual = 4.7702658e-09, No Iterations 6
Min,max p = 100000, 103298.77
time step continuity errors : sum local = 4.7662045e-06, global = -1.5936918e-08, cumulative = -0.030790967
Min,max U = 0, 19.066868
ExecutionTime = 22.97 s  ClockTime = 24 s

Courant Number mean: 0.2252992 max: 0.49809741
deltaT = 1.9289502e-05
Time = 0.000876066

Correcting burningSolid
diagonal:  Solving for alphaGas, Initial residual = 0, Final residual = 0, No Iterations 0
Min/Max Gas Transfer Weights: 0, 6.9880646e-07
Min/Max Solid Transfer Weights: 0, 9.4840358e-07
Solving UEqn
Min,max U = 0, 19.066868
DILUPBiCG:  Solving for N2, Initial residual = 0, Final residual = 0, No Iterations 0
DILUPBiCG:  Solving for EMg, Initial residual = 0.0037079849, Final residual = 1.8936136e-07, No Iterations 2
Min,max for N2 = 0, 0
Min,max for EMs = 0, 1
Min,max for EMg = 0, 1
DILUPBiCG:  Solving for hs, Initial residual = 0.022273842, Final residual = 5.1600055e-07, No Iterations 2
T gas min/max   = 0, 303.29084
DICPCG:  Solving for Ts, Initial residual = 0.00010518569, Final residual = 7.0360431e-10, No Iterations 11
T solid min/max   = 0, 300.01677
Solving pEqn
Min,max Uest = 0, 18.965801
GAMG:  Solving for p, Initial residual = 0.045939282, Final residual = 0.0020082507, No Iterations 2
Min,max p = 100000, 103319.73
time step continuity errors : sum local = 0.00010709972, global = -7.2315003e-05, cumulative = -0.030863282
Min,max U = 0, 19.018968
Solving pEqn
Min,max Uest = 0, 18.965889
GAMGPCG:  Solving for p, Initial residual = 0.0021939147, Final residual = 3.9124831e-09, No Iterations 6
Min,max p = 100000, 103319.04
time step continuity errors : sum local = 4.0387102e-06, global = 2.4928366e-08, cumulative = -0.030863257
Min,max U = 0, 19.016587
ExecutionTime = 23.52 s  ClockTime = 24 s

Courant Number mean: 0.22543893 max: 0.49811961
deltaT = 1.933037e-05
Time = 0.000895396

Correcting burningSolid
diagonal:  Solving for alphaGas, Initial residual = 0, Final residual = 0, No Iterations 0
Min/Max Gas Transfer Weights: 0, 6.9880646e-07
Min/Max Solid Transfer Weights: 0, 9.4840358e-07
Solving UEqn
Min,max U = 0, 19.016587
DILUPBiCG:  Solving for N2, Initial residual = 0, Final residual = 0, No Iterations 0
DILUPBiCG:  Solving for EMg, Initial residual = 0.0032064681, Final residual = 1.7403839e-07, No Iterations 2
Min,max for N2 = 0, 0
Min,max for EMs = 0, 1
Min,max for EMg = 0, 1
DILUPBiCG:  Solving for hs, Initial residual = 0.018780359, Final residual = 1.2382385e-09, No Iterations 3
T gas min/max   = 0, 303.28536
DICPCG:  Solving for Ts, Initial residual = 0.00010504269, Final residual = 7.0546449e-10, No Iterations 11
T solid min/max   = 0, 300.01716
Solving pEqn
Min,max Uest = 0, 18.916945
GAMG:  Solving for p, Initial residual = 0.035369923, Final residual = 0.0015609603, No Iterations 2
Min,max p = 100000, 103336.77
time step continuity errors : sum local = 8.6891987e-05, global = -6.097832e-05, cumulative = -0.030924236
Min,max U = 0, 18.97275
Solving pEqn
Min,max Uest = 0, 18.916959
GAMGPCG:  Solving for p, Initial residual = 0.00173779, Final residual = 2.8353068e-09, No Iterations 6
Min,max p = 100000, 103336.09
time step continuity errors : sum local = 3.4169609e-06, global = 6.0376828e-09, cumulative = -0.03092423
Min,max U = 0, 18.970465
ExecutionTime = 24.08 s  ClockTime = 25 s

Courant Number mean: 0.22549109 max: 0.49824559
deltaT = 1.9371498e-05
Time = 0.000914767

Correcting burningSolid
diagonal:  Solving for alphaGas, Initial residual = 0, Final residual = 0, No Iterations 0
Min/Max Gas Transfer Weights: 0, 6.9880646e-07
Min/Max Solid Transfer Weights: 0, 9.4840358e-07
Solving UEqn
Min,max U = 0, 18.970465
DILUPBiCG:  Solving for N2, Initial residual = 0, Final residual = 0, No Iterations 0
DILUPBiCG:  Solving for EMg, Initial residual = 0.002777164, Final residual = 1.2779177e-07, No Iterations 2
Min,max for N2 = 0, 0
Min,max for EMs = 0, 1
Min,max for EMg = 0, 1
DILUPBiCG:  Solving for hs, Initial residual = 0.015807827, Final residual = 4.0446456e-08, No Iterations 2
T gas min/max   = 0, 303.27921
DICPCG:  Solving for Ts, Initial residual = 0.00010496627, Final residual = 7.0764806e-10, No Iterations 11
T solid min/max   = 0, 300.01755
Solving pEqn
Min,max Uest = 0, 18.871976
GAMG:  Solving for p, Initial residual = 0.026777767, Final residual = 0.0012089419, No Iterations 2
Min,max p = 100000, 103351.83
time step continuity errors : sum local = 6.8694025e-05, global = -5.1979598e-05, cumulative = -0.030976209
Min,max U = 0, 18.930132
Solving pEqn
Min,max Uest = 0, 18.87191
GAMGPCG:  Solving for p, Initial residual = 0.0013816233, Final residual = 1.8858341e-09, No Iterations 6
Min,max p = 100000, 103351.47
time step continuity errors : sum local = 2.8338743e-06, global = -5.0477106e-08, cumulative = -0.03097626
Min,max U = 0, 18.927925
ExecutionTime = 24.63 s  ClockTime = 26 s

Courant Number mean: 0.22547915 max: 0.49847051
deltaT = 1.941289e-05
Time = 0.00093418

Correcting burningSolid
diagonal:  Solving for alphaGas, Initial residual = 0, Final residual = 0, No Iterations 0
Min/Max Gas Transfer Weights: 0, 6.9880646e-07
Min/Max Solid Transfer Weights: 0, 9.4840358e-07
Solving UEqn
Min,max U = 0, 18.927925
DILUPBiCG:  Solving for N2, Initial residual = 0, Final residual = 0, No Iterations 0
DILUPBiCG:  Solving for EMg, Initial residual = 0.0023867597, Final residual = 1.0545957e-07, No Iterations 2
Min,max for N2 = 0, 0
Min,max for EMs = 0, 1
Min,max for EMg = 0, 1
DILUPBiCG:  Solving for hs, Initial residual = 0.013297606, Final residual = 8.4946968e-08, No Iterations 2
T gas min/max   = 0, 303.27286
DICPCG:  Solving for Ts, Initial residual = 0.00010495688, Final residual = 7.0977182e-10, No Iterations 11
T solid min/max   = 0, 300.01795
Solving pEqn
Min,max Uest = 0, 18.830364
GAMG:  Solving for p, Initial residual = 0.020589395, Final residual = 0.00093257867, No Iterations 2
Min,max p = 100000, 103364.7
time step continuity errors : sum local = 5.3923283e-05, global = -4.4883603e-05, cumulative = -0.031021143
Min,max U = 0, 18.890265
Solving pEqn
Min,max Uest = 0, 18.830239
GAMGPCG:  Solving for p, Initial residual = 0.0010930885, Final residual = 1.3264668e-09, No Iterations 6
Min,max p = 100000, 103364.43
time step continuity errors : sum local = 2.2894274e-06, global = -1.334399e-07, cumulative = -0.031021277
Min,max U = 0, 18.888127
ExecutionTime = 25.11 s  ClockTime = 26 s

Courant Number mean: 0.22542105 max: 0.49877952
deltaT = 1.9454549e-05
Time = 0.000953635

Correcting burningSolid
diagonal:  Solving for alphaGas, Initial residual = 0, Final residual = 0, No Iterations 0
Min/Max Gas Transfer Weights: 0, 6.9880646e-07
Min/Max Solid Transfer Weights: 0, 9.4840358e-07
Solving UEqn
Min,max U = 0, 18.888127
DILUPBiCG:  Solving for N2, Initial residual = 0, Final residual = 0, No Iterations 0
DILUPBiCG:  Solving for EMg, Initial residual = 0.0020832446, Final residual = 2.9501099e-07, No Iterations 2
Min,max for N2 = 0, 0
Min,max for EMs = 0, 1
Min,max for EMg = 0, 1
DILUPBiCG:  Solving for hs, Initial residual = 0.011271207, Final residual = 5.5400468e-08, No Iterations 2
T gas min/max   = 0, 303.26646
DICPCG:  Solving for Ts, Initial residual = 0.00010501245, Final residual = 7.1233418e-10, No Iterations 11
T solid min/max   = 0, 300.01834
Solving pEqn
Min,max Uest = 0, 18.791337
GAMG:  Solving for p, Initial residual = 0.016939702, Final residual = 0.00072961089, No Iterations 2
Min,max p = 100000, 103374.32
time step continuity errors : sum local = 4.5649386e-05, global = -3.9316436e-05, cumulative = -0.031060593
Min,max U = 0, 18.852107
Solving pEqn
Min,max Uest = 0, 18.791196
GAMGPCG:  Solving for p, Initial residual = 0.00087814407, Final residual = 7.4374179e-09, No Iterations 5
Min,max p = 100000, 103374.08
time step continuity errors : sum local = 1.8346724e-06, global = -2.4940338e-07, cumulative = -0.031060842
Min,max U = 0, 18.850049
ExecutionTime = 25.63 s  ClockTime = 27 s

Courant Number mean: 0.22533191 max: 0.49914851
deltaT = 1.9454549e-05
Time = 0.000973089

Correcting burningSolid
diagonal:  Solving for alphaGas, Initial residual = 0, Final residual = 0, No Iterations 0
Min/Max Gas Transfer Weights: 0, 6.9880646e-07
Min/Max Solid Transfer Weights: 0, 9.4840358e-07
Solving UEqn
Min,max U = 0, 18.850049
[...]
DILUPBiCG:  Solving for EMg, Initial residual = 0.0011270513, Final residual = 1.6650862e-07, No Iterations 2
Min,max for N2 = 0, 0
Min,max for EMs = 0, 1
Min,max for EMg = 0, 1
DILUPBiCG:  Solving for hs, Initial residual = 0.0011247533, Final residual = 1.7797409e-07, No Iterations 2
T gas min/max   = 0, 300.65276
DICPCG:  Solving for Ts, Initial residual = 3.8487895e-06, Final residual = 8.9772223e-10, No Iterations 8
T solid min/max   = 0, 300.16098
Solving pEqn
Min,max Uest = 0, 17.306586
GAMG:  Solving for p, Initial residual = 0.0010122605, Final residual = 2.9972558e-05, No Iterations 2
Min,max p = 100000, 103517.35
time step continuity errors : sum local = 9.5890299e-07, global = 9.5681674e-07, cumulative = -0.033456546
Min,max U = 0, 17.312673
Solving pEqn
Min,max Uest = 0, 17.306341
GAMGPCG:  Solving for p, Initial residual = 0.00017588632, Final residual = 1.4076094e-09, No Iterations 5
Min,max p = 100000, 103517.34
time step continuity errors : sum local = 6.1749697e-08, global = 2.56036e-08, cumulative = -0.03345652
Min,max U = 0, 17.312507
ExecutionTime = 1098.63 s  ClockTime = 1131 s

Courant Number mean: 0.25551134 max: 0.4988754
deltaT = 2.0763821e-05
Time = 0.0424835

Correcting burningSolid
diagonal:  Solving for alphaGas, Initial residual = 0, Final residual = 0, No Iterations 0
Min/Max Gas Transfer Weights: 0, 6.9880646e-07
Min/Max Solid Transfer Weights: 0, 9.4840358e-07
Solving UEqn
Min,max U = 0, 17.312507
DILUPBiCG:  Solving for N2, Initial residual = 0, Final residual = 0, No Iterations 0
DILUPBiCG:  Solving for EMg, Initial residual = 0.0011265461, Final residual = 1.6557569e-07, No Iterations 2
Min,max for N2 = 0, 0
Min,max for EMs = 0, 1
Min,max for EMg = 0, 1
DILUPBiCG:  Solving for hs, Initial residual = 0.0011240419, Final residual = 1.818566e-07, No Iterations 2
T gas min/max   = 0, 300.65156
DICPCG:  Solving for Ts, Initial residual = 3.8499785e-06, Final residual = 8.9741847e-10, No Iterations 8
T solid min/max   = 0, 300.16097
Solving pEqn
Min,max Uest = 0, 17.314412
GAMG:  Solving for p, Initial residual = 0.0010065825, Final residual = 3.0082434e-05, No Iterations 2
Min,max p = 100000, 103517.24
time step continuity errors : sum local = 9.596515e-07, global = 9.5752876e-07, cumulative = -0.033455563
Min,max U = 0, 17.320758
Solving pEqn
Min,max Uest = 0, 17.31416
GAMGPCG:  Solving for p, Initial residual = 0.00017600534, Final residual = 1.4489186e-09, No Iterations 5
Min,max p = 100000, 103517.24
time step continuity errors : sum local = 6.2032061e-08, global = 2.5755557e-08, cumulative = -0.033455537
Min,max U = 0, 17.320585
ExecutionTime = 1099.16 s  ClockTime = 1132 s

Courant Number mean: 0.25552552 max: 0.49895935
deltaT = 2.0763821e-05
Time = 0.0425043

Correcting burningSolid
diagonal:  Solving for alphaGas, Initial residual = 0, Final residual = 0, No Iterations 0
Min/Max Gas Transfer Weights: 0, 6.9880646e-07
Min/Max Solid Transfer Weights: 0, 9.4840358e-07
Solving UEqn
Min,max U = 0, 17.320585
DILUPBiCG:  Solving for N2, Initial residual = 0, Final residual = 0, No Iterations 0
DILUPBiCG:  Solving for EMg, Initial residual = 0.0011259405, Final residual = 1.6567645e-07, No Iterations 2
Min,max for N2 = 0, 0
Min,max for EMs = 0, 1
Min,max for EMg = 0, 1
DILUPBiCG:  Solving for hs, Initial residual = 0.001123416, Final residual = 1.762691e-07, No Iterations 2
T gas min/max   = 0, 300.65031
DICPCG:  Solving for Ts, Initial residual = 3.8511074e-06, Final residual = 8.9680119e-10, No Iterations 8
T solid min/max   = 0, 300.16095
Solving pEqn
Min,max Uest = 0, 17.322214
GAMG:  Solving for p, Initial residual = 0.0010075795, Final residual = 3.0211599e-05, No Iterations 2
Min,max p = 100000, 103517.14
time step continuity errors : sum local = 9.6071945e-07, global = 9.5857486e-07, cumulative = -0.033454579
Min,max U = 0, 17.328819
Solving pEqn
Min,max Uest = 0, 17.321954
GAMGPCG:  Solving for p, Initial residual = 0.00017635775, Final residual = 1.5073846e-09, No Iterations 5
Min,max p = 100000, 103517.13
time step continuity errors : sum local = 6.234833e-08, global = 2.5919545e-08, cumulative = -0.033454553
Min,max U = 0, 17.328639
ExecutionTime = 1099.68 s  ClockTime = 1132 s

Courant Number mean: 0.25553965 max: 0.49904211
deltaT = 2.0763821e-05
Time = 0.042525

Correcting burningSolid
diagonal:  Solving for alphaGas, Initial residual = 0, Final residual = 0, No Iterations 0
Min/Max Gas Transfer Weights: 0, 6.9880646e-07
Min/Max Solid Transfer Weights: 0, 9.4840358e-07
Solving UEqn
Min,max U = 0, 17.328639
DILUPBiCG:  Solving for N2, Initial residual = 0, Final residual = 0, No Iterations 0
DILUPBiCG:  Solving for EMg, Initial residual = 0.0011252822, Final residual = 1.6654502e-07, No Iterations 2
Min,max for N2 = 0, 0
Min,max for EMs = 0, 1
Min,max for EMg = 0, 1
DILUPBiCG:  Solving for hs, Initial residual = 0.0011234921, Final residual = 1.7156598e-07, No Iterations 2
T gas min/max   = 0, 300.64902
DICPCG:  Solving for Ts, Initial residual = 3.8521928e-06, Final residual = 8.9638625e-10, No Iterations 8
T solid min/max   = 0, 300.16094
Solving pEqn
Min,max Uest = 0, 17.32999
GAMG:  Solving for p, Initial residual = 0.0010121187, Final residual = 3.0449791e-05, No Iterations 2
Min,max p = 100000, 103517.03
time step continuity errors : sum local = 9.6197975e-07, global = 9.5980268e-07, cumulative = -0.033453593
Min,max U = 0, 17.336851
Solving pEqn
Min,max Uest = 0, 17.329724
GAMGPCG:  Solving for p, Initial residual = 0.00017714319, Final residual = 1.5389473e-09, No Iterations 5
Min,max p = 100000, 103517.03
time step continuity errors : sum local = 6.2781999e-08, global = 2.6157303e-08, cumulative = -0.033453567
Min,max U = 0, 17.336668
ExecutionTime = 1100.21 s  ClockTime = 1133 s

Courant Number mean: 0.25555361 max: 0.49912392
deltaT = 2.0763821e-05
Time = 0.0425458

Correcting burningSolid
diagonal:  Solving for alphaGas, Initial residual = 0, Final residual = 0, No Iterations 0
Min/Max Gas Transfer Weights: 0, 6.9880646e-07
Min/Max Solid Transfer Weights: 0, 9.4840358e-07
Solving UEqn
Min,max U = 0, 17.336668
DILUPBiCG:  Solving for N2, Initial residual = 0, Final residual = 0, No Iterations 0
DILUPBiCG:  Solving for EMg, Initial residual = 0.0011245243, Final residual = 1.6774439e-07, No Iterations 2
Min,max for N2 = 0, 0
Min,max for EMs = 0, 1
Min,max for EMg = 0, 1
DILUPBiCG:  Solving for hs, Initial residual = 0.0011240583, Final residual = 1.6780358e-07, No Iterations 2
T gas min/max   = 0, 300.64767
DICPCG:  Solving for Ts, Initial residual = 3.8534029e-06, Final residual = 8.9599613e-10, No Iterations 8
T solid min/max   = 0, 300.16092
Solving pEqn
Min,max Uest = 0, 17.33774
GAMG:  Solving for p, Initial residual = 0.0010132123, Final residual = 3.0662353e-05, No Iterations 2
Min,max p = 100000, 103516.93
time step continuity errors : sum local = 9.6347174e-07, global = 9.6123758e-07, cumulative = -0.033452605
Min,max U = 0, 17.344856
Solving pEqn
Min,max Uest = 0, 17.33747
GAMGPCG:  Solving for p, Initial residual = 0.00017827183, Final residual = 1.6090364e-09, No Iterations 5
Min,max p = 100000, 103516.92
time step continuity errors : sum local = 6.3176691e-08, global = 2.6418392e-08, cumulative = -0.033452579
Min,max U = 0, 17.344672
ExecutionTime = 1100.74 s  ClockTime = 1133 s

Courant Number mean: 0.25556753 max: 0.49920485
deltaT = 2.0763821e-05
Time = 0.0425666

Correcting burningSolid
diagonal:  Solving for alphaGas, Initial residual = 0, Final residual = 0, No Iterations 0
Min/Max Gas Transfer Weights: 0, 6.9880646e-07
Min/Max Solid Transfer Weights: 0, 9.4840358e-07
Solving UEqn
Min,max U = 0, 17.344672
DILUPBiCG:  Solving for N2, Initial residual = 0, Final residual = 0, No Iterations 0
DILUPBiCG:  Solving for EMg, Initial residual = 0.0011239657, Final residual = 1.6958835e-07, No Iterations 2
Min,max for N2 = 0, 0
Min,max for EMs = 0, 1
Min,max for EMg = 0, 1
DILUPBiCG:  Solving for hs, Initial residual = 0.0011249644, Final residual = 1.6506595e-07, No Iterations 2
T gas min/max   = 0, 300.64628
DICPCG:  Solving for Ts, Initial residual = 3.854719e-06, Final residual = 8.9553128e-10, No Iterations 8
T solid min/max   = 0, 300.16091
Solving pEqn
Min,max Uest = 0, 17.345468
GAMG:  Solving for p, Initial residual = 0.0010225085, Final residual = 3.0813245e-05, No Iterations 2
Min,max p = 100000, 103516.82
time step continuity errors : sum local = 9.6522663e-07, global = 9.6290608e-07, cumulative = -0.033451616
Min,max U = 0, 17.352844
Solving pEqn
Min,max Uest = 0, 17.345195
GAMGPCG:  Solving for p, Initial residual = 0.00017951068, Final residual = 1.6857335e-09, No Iterations 5
Min,max p = 100000, 103516.82
time step continuity errors : sum local = 6.3563385e-08, global = 2.6706201e-08, cumulative = -0.033451589
Min,max U = 0, 17.352659
ExecutionTime = 1101.26 s  ClockTime = 1134 s

Courant Number mean: 0.25558151 max: 0.49928484
deltaT = 2.0763821e-05
Time = 0.0425873

Correcting burningSolid
diagonal:  Solving for alphaGas, Initial residual = 0, Final residual = 0, No Iterations 0
Min/Max Gas Transfer Weights: 0, 6.9880646e-07
Min/Max Solid Transfer Weights: 0, 9.4840358e-07
Solving UEqn
Min,max U = 0, 17.352659
DILUPBiCG:  Solving for N2, Initial residual = 0, Final residual = 0, No Iterations 0
DILUPBiCG:  Solving for EMg, Initial residual = 0.0011235803, Final residual = 1.7268067e-07, No Iterations 2
Min,max for N2 = 0, 0
Min,max for EMs = 0, 1
Min,max for EMg = 0, 1
DILUPBiCG:  Solving for hs, Initial residual = 0.0011262493, Final residual = 1.6351087e-07, No Iterations 2
T gas min/max   = 0, 300.64534
DICPCG:  Solving for Ts, Initial residual = 3.856136e-06, Final residual = 8.9501661e-10, No Iterations 8
T solid min/max   = 0, 300.16089
Solving pEqn
Min,max Uest = 0, 17.353183
GAMG:  Solving for p, Initial residual = 0.0010286325, Final residual = 3.0978993e-05, No Iterations 2
Min,max p = 100000, 103516.72
time step continuity errors : sum local = 9.6723624e-07, global = 9.648526e-07, cumulative = -0.033450625
Min,max U = 0, 17.360824
Solving pEqn
Min,max Uest = 0, 17.352909
GAMGPCG:  Solving for p, Initial residual = 0.00018062225, Final residual = 1.7699947e-09, No Iterations 5
Min,max p = 100000, 103516.71
time step continuity errors : sum local = 6.3944725e-08, global = 2.6963385e-08, cumulative = -0.033450598
Min,max U = 0, 17.360639
ExecutionTime = 1101.79 s  ClockTime = 1134 s

Courant Number mean: 0.25559545 max: 0.49936384
deltaT = 2.0763821e-05
Time = 0.0426081

Correcting burningSolid
diagonal:  Solving for alphaGas, Initial residual = 0, Final residual = 0, No Iterations 0
Min/Max Gas Transfer Weights: 0, 6.9880646e-07
Min/Max Solid Transfer Weights: 0, 9.4840358e-07
Solving UEqn
Min,max U = 0, 17.360639
DILUPBiCG:  Solving for N2, Initial residual = 0, Final residual = 0, No Iterations 0
DILUPBiCG:  Solving for EMg, Initial residual = 0.0011233998, Final residual = 1.7669927e-07, No Iterations 2
Min,max for N2 = 0, 0
Min,max for EMs = 0, 1
Min,max for EMg = 0, 1
DILUPBiCG:  Solving for hs, Initial residual = 0.0011279252, Final residual = 1.6274811e-07, No Iterations 2
T gas min/max   = 0, 300.64535
DICPCG:  Solving for Ts, Initial residual = 3.8576662e-06, Final residual = 8.9446084e-10, No Iterations 8
T solid min/max   = 0, 300.16087
Solving pEqn
Min,max Uest = 0, 17.360899
GAMG:  Solving for p, Initial residual = 0.0010287962, Final residual = 3.109483e-05, No Iterations 2
Min,max p = 100000, 103516.61
time step continuity errors : sum local = 9.6943991e-07, global = 9.6703729e-07, cumulative = -0.033449631
Min,max U = 0, 17.368804
Solving pEqn
Min,max Uest = 0, 17.360622
GAMGPCG:  Solving for p, Initial residual = 0.00018085034, Final residual = 1.8372592e-09, No Iterations 5
Min,max p = 100000, 103516.6
time step continuity errors : sum local = 6.4380468e-08, global = 2.7196014e-08, cumulative = -0.033449603
Min,max U = 0, 17.368619
ExecutionTime = 1102.32 s  ClockTime = 1135 s

Courant Number mean: 0.2556093 max: 0.49944178
deltaT = 2.0763821e-05
Time = 0.0426288

Correcting burningSolid
diagonal:  Solving for alphaGas, Initial residual = 0, Final residual = 0, No Iterations 0
Min/Max Gas Transfer Weights: 0, 6.9880646e-07
Min/Max Solid Transfer Weights: 0, 9.4840358e-07
Solving UEqn
Min,max U = 0, 17.368619
DILUPBiCG:  Solving for N2, Initial residual = 0, Final residual = 0, No Iterations 0
DILUPBiCG:  Solving for EMg, Initial residual = 0.0011232775, Final residual = 1.8160483e-07, No Iterations 2
Min,max for N2 = 0, 0
Min,max for EMs = 0, 1
Min,max for EMg = 0, 1
DILUPBiCG:  Solving for hs, Initial residual = 0.0011297489, Final residual = 1.6264312e-07, No Iterations 2
T gas min/max   = 0, 300.64532
DICPCG:  Solving for Ts, Initial residual = 3.8593279e-06, Final residual = 8.9381748e-10, No Iterations 8
T solid min/max   = 0, 300.16086
Solving pEqn
Min,max Uest = 0, 17.368621
GAMG:  Solving for p, Initial residual = 0.0010329032, Final residual = 3.142581e-05, No Iterations 2
Min,max p = 100000, 103516.5
time step continuity errors : sum local = 9.7181743e-07, global = 9.6938669e-07, cumulative = -0.033448634
Min,max U = 0, 17.376792
Solving pEqn
Min,max Uest = 0, 17.36834
GAMGPCG:  Solving for p, Initial residual = 0.0001818482, Final residual = 1.8398281e-09, No Iterations 5
Min,max p = 100000, 103516.5
time step continuity errors : sum local = 6.4866078e-08, global = 2.7439702e-08, cumulative = -0.033448607
Min,max U = 0, 17.376604
ExecutionTime = 1102.84 s  ClockTime = 1136 s

Courant Number mean: 0.25562308 max: 0.49951862
deltaT = 2.0763821e-05
Time = 0.0426496

Correcting burningSolid
diagonal:  Solving for alphaGas, Initial residual = 0, Final residual = 0, No Iterations 0
Min/Max Gas Transfer Weights: 0, 6.9880646e-07
Min/Max Solid Transfer Weights: 0, 9.4840358e-07
Solving UEqn
Min,max U = 0, 17.376604
DILUPBiCG:  Solving for N2, Initial residual = 0, Final residual = 0, No Iterations 0
DILUPBiCG:  Solving for EMg, Initial residual = 0.0011231793, Final residual = 1.8715129e-07, No Iterations 2
Min,max for N2 = 0, 0
Min,max for EMs = 0, 1
Min,max for EMg = 0, 1
DILUPBiCG:  Solving for hs, Initial residual = 0.0011320231, Final residual = 1.6311593e-07, No Iterations 2
T gas min/max   = 0, 300.64523
DICPCG:  Solving for Ts, Initial residual = 3.8611386e-06, Final residual = 8.9315404e-10, No Iterations 8
T solid min/max   = 0, 300.16084
Solving pEqn
Min,max Uest = 0, 17.37635
GAMG:  Solving for p, Initial residual = 0.0010309255, Final residual = 3.1636816e-05, No Iterations 2
Min,max p = 100000, 103516.4
time step continuity errors : sum local = 9.7432363e-07, global = 9.7189363e-07, cumulative = -0.033447635
Min,max U = 0, 17.384786
Solving pEqn
Min,max Uest = 0, 17.376061
GAMGPCG:  Solving for p, Initial residual = 0.00018162105, Final residual = 1.9139973e-09, No Iterations 5
Min,max p = 100000, 103516.39
time step continuity errors : sum local = 6.5250548e-08, global = 2.7653894e-08, cumulative = -0.033447607
Min,max U = 0, 17.384592
ExecutionTime = 1103.38 s  ClockTime = 1136 s

Courant Number mean: 0.25563685 max: 0.49959432
deltaT = 2.0763821e-05
Time = 0.0426704

Correcting burningSolid
diagonal:  Solving for alphaGas, Initial residual = 0, Final residual = 0, No Iterations 0
Min/Max Gas Transfer Weights: 0, 6.9880646e-07
Min/Max Solid Transfer Weights: 0, 9.4840358e-07
Solving UEqn
Min,max U = 0, 17.384592
DILUPBiCG:  Solving for N2, Initial residual = 0, Final residual = 0, No Iterations 0
DILUPBiCG:  Solving for EMg, Initial residual = 0.0011230227, Final residual = 1.9326411e-07, No Iterations 2
Min,max for N2 = 0, 0
Min,max for EMs = 0, 1
Min,max for EMg = 0, 1
DILUPBiCG:  Solving for hs, Initial residual = 0.0011344736, Final residual = 1.6396823e-07, No Iterations 2
T gas min/max   = 0, 300.6451
DICPCG:  Solving for Ts, Initial residual = 3.8631087e-06, Final residual = 8.9249184e-10, No Iterations 8
T solid min/max   = 0, 300.16083
Solving pEqn
Min,max Uest = 0, 17.384078
GAMG:  Solving for p, Initial residual = 0.0010300773, Final residual = 3.1790957e-05, No Iterations 2
Min,max p = 100000, 103516.29
time step continuity errors : sum local = 9.7689069e-07, global = 9.7446069e-07, cumulative = -0.033446633
Min,max U = 0, 17.392779
Solving pEqn
Min,max Uest = 0, 17.383778
GAMGPCG:  Solving for p, Initial residual = 0.00018137973, Final residual = 1.9313679e-09, No Iterations 5
Min,max p = 100000, 103516.28
time step continuity errors : sum local = 6.5615754e-08, global = 2.7846933e-08, cumulative = -0.033446605
Min,max U = 0, 17.392575
ExecutionTime = 1103.89 s  ClockTime = 1137 s

Courant Number mean: 0.25565049 max: 0.49966885
deltaT = 2.0763821e-05
Time = 0.0426911

Correcting burningSolid
diagonal:  Solving for alphaGas, Initial residual = 0, Final residual = 0, No Iterations 0
Min/Max Gas Transfer Weights: 0, 6.9880646e-07
Min/Max Solid Transfer Weights: 0, 9.4840358e-07
Solving UEqn
Min,max U = 0, 17.392575
DILUPBiCG:  Solving for N2, Initial residual = 0, Final residual = 0, No Iterations 0
DILUPBiCG:  Solving for EMg, Initial residual = 0.0011227547, Final residual = 1.9928145e-07, No Iterations 2
Min,max for N2 = 0, 0
Min,max for EMs = 0, 1
Min,max for EMg = 0, 1
DILUPBiCG:  Solving for hs, Initial residual = 0.0011369606, Final residual = 1.6551351e-07, No Iterations 2
T gas min/max   = 0, 300.64493
DICPCG:  Solving for Ts, Initial residual = 3.8652417e-06, Final residual = 8.91817e-10, No Iterations 8
T solid min/max   = 0, 300.16081
Solving pEqn
Min,max Uest = 0, 17.39179
GAMG:  Solving for p, Initial residual = 0.0010317708, Final residual = 3.214966e-05, No Iterations 2
Min,max p = 100000, 103516.18
time step continuity errors : sum local = 9.791839e-07, global = 9.7670252e-07, cumulative = -0.033445628
Min,max U = 0, 17.400756
Solving pEqn
Min,max Uest = 0, 17.391476
GAMGPCG:  Solving for p, Initial residual = 0.00017992687, Final residual = 2.0181466e-09, No Iterations 5
Min,max p = 100000, 103516.17
time step continuity errors : sum local = 6.6161839e-08, global = 2.8068551e-08, cumulative = -0.0334456
Min,max U = 0, 17.400541
ExecutionTime = 1104.43 s  ClockTime = 1137 s

Courant Number mean: 0.25566413 max: 0.49974219
deltaT = 2.0763821e-05
Time = 0.0427119

Correcting burningSolid
diagonal:  Solving for alphaGas, Initial residual = 0, Final residual = 0, No Iterations 0
Min/Max Gas Transfer Weights: 0, 6.9880646e-07
Min/Max Solid Transfer Weights: 0, 9.4840358e-07
Solving UEqn
Min,max U = 0, 17.400541
DILUPBiCG:  Solving for N2, Initial residual = 0, Final residual = 0, No Iterations 0
DILUPBiCG:  Solving for EMg, Initial residual = 0.0011220831, Final residual = 2.0186214e-07, No Iterations 2
Min,max for N2 = 0, 0
Min,max for EMs = 0, 1
Min,max for EMg = 0, 1
DILUPBiCG:  Solving for hs, Initial residual = 0.0011392522, Final residual = 1.6949991e-07, No Iterations 2
T gas min/max   = 0, 300.6447
DICPCG:  Solving for Ts, Initial residual = 3.8675383e-06, Final residual = 8.9115037e-10, No Iterations 8
T solid min/max   = 0, 300.1608
Solving pEqn
Min,max Uest = 0, 17.39947
GAMG:  Solving for p, Initial residual = 0.0010344392, Final residual = 3.2461842e-05, No Iterations 2
Min,max p = 100000, 103516.07
time step continuity errors : sum local = 9.8115397e-07, global = 9.7867162e-07, cumulative = -0.033444621
Min,max U = 0, 17.408704
Solving pEqn
Min,max Uest = 0, 17.399141
GAMGPCG:  Solving for p, Initial residual = 0.00018009343, Final residual = 2.1236194e-09, No Iterations 5
Min,max p = 100000, 103516.06
time step continuity errors : sum local = 6.672255e-08, global = 2.8338557e-08, cumulative = -0.033444593
Min,max U = 0, 17.408477
ExecutionTime = 1104.95 s  ClockTime = 1138 s

Courant Number mean: 0.25567769 max: 0.49981432
deltaT = 2.0763821e-05
Time = 0.0427327

Correcting burningSolid
diagonal:  Solving for alphaGas, Initial residual = 0, Final residual = 0, No Iterations 0
Min/Max Gas Transfer Weights: 0, 6.9880646e-07
Min/Max Solid Transfer Weights: 0, 9.4840358e-07
Solving UEqn
Min,max U = 0, 17.408477
mpirun: killing job...

